Circuit: * C:\users\marc-antoine\Bureau\bass-amplifier\simulation\Draft1.asc

Direct Newton iteration failed to find .op point.  (Use ".option noopiter" to skip.)
Starting Gmin stepping
Gmin = 10
Gmin = 1.07374
Gmin = 0.115292
Gmin = 0.0123794
Gmin = 0.00132923
Gmin = 0.000142725
Gmin = 1.5325e-05
Gmin = 1.6455e-06
vernier = 0.5
vernier = 0.25
Gmin = 7.02396e-07
vernier = 0.125
vernier = 0.166667
Gmin = 5.32815e-07
vernier = 0.0833333
vernier = 0.111111
Gmin = 4.48677e-07
vernier = 0.148148
vernier = 0.074074
vernier = 0.0987653
Gmin = 3.78179e-07
vernier = 0.0493827
vernier = 0.0658435
Gmin = 3.35953e-07
vernier = 0.0877914
vernier = 0.0438957
Gmin = 3.01271e-07
vernier = 0.0585276
vernier = 0.0780367
vernier = 0.0390184
Gmin = 2.70489e-07
vernier = 0.0520245
Gmin = 2.40776e-07
vernier = 0.0693659
vernier = 0.034683
vernier = 0.046244
Gmin = 2.22787e-07
vernier = 0.0616586
vernier = 0.0308293
Gmin = 2.0713e-07
vernier = 0.0411057
vernier = 0.0548076
vernier = 0.0274038
Gmin = 1.92163e-07
vernier = 0.0365384
vernier = 0.0487178
Gmin = 1.76126e-07
vernier = 0.0243589
vernier = 0.0324786
Gmin = 1.67436e-07
vernier = 0.0433047
vernier = 0.0216524
vernier = 0.0288698
Gmin = 1.59213e-07
vernier = 0.0384931
vernier = 0.0192465
Gmin = 1.49954e-07
vernier = 0.025662
Gmin = 1.41565e-07
vernier = 0.0342161
vernier = 0.0456214
vernier = 0.0228107
Gmin = 1.32991e-07
vernier = 0.0304143
vernier = 0.0405523
Gmin = 1.23679e-07
vernier = 0.0202762
vernier = 0.0270349
Gmin = 1.18575e-07
vernier = 0.0360465
vernier = 0.0180232
vernier = 0.024031
Gmin = 1.13705e-07
vernier = 0.0320413
vernier = 0.0160207
Gmin = 1.09035e-07
vernier = 0.0213609
vernier = 0.0284812
vernier = 0.0142406
Gmin = 1.04765e-07
vernier = 0.0189874
Gmin = 1.00511e-07
vernier = 0.0253166
vernier = 0.0126583
vernier = 0.0168777
Gmin = 9.74381e-08
vernier = 0.0225036
Gmin = 9.27691e-08
vernier = 0.0300048
vernier = 0.0150024
vernier = 0.0200032
Gmin = 8.96406e-08
vernier = 0.0266709
vernier = 0.0133355
Gmin = 8.67077e-08
vernier = 0.0177806
vernier = 0.0237075
vernier = 0.0118537
Gmin = 8.39015e-08
vernier = 0.015805
Gmin = 8.09755e-08
vernier = 0.0210733
vernier = 0.0105366
vernier = 0.0140489
Gmin = 7.90811e-08
vernier = 0.0187318
vernier = 0.0249757
Gmin = 7.56184e-08
vernier = 0.0124879
vernier = 0.0166505
Gmin = 7.36794e-08
vernier = 0.0222006
vernier = 0.0111003
vernier = 0.0148004
Gmin = 7.17986e-08
vernier = 0.0197339
vernier = 0.00986695
Gmin = 6.99659e-08
vernier = 0.0131559
vernier = 0.0175412
vernier = 0.00877062
Gmin = 6.82637e-08
vernier = 0.0116942
Gmin = 6.65419e-08
vernier = 0.0155922
vernier = 0.0207896
vernier = 0.0103948
Gmin = 6.46491e-08
vernier = 0.0138597
Gmin = 6.26672e-08
vernier = 0.0184796
vernier = 0.00923982
vernier = 0.0123198
Gmin = 6.13795e-08
vernier = 0.0164263
vernier = 0.00821317
Gmin = 6.01954e-08
vernier = 0.0109509
vernier = 0.0146012
Gmin = 5.83592e-08
vernier = 0.0194682
vernier = 0.00973411
vernier = 0.0129788
Gmin = 5.70505e-08
vernier = 0.0173051
vernier = 0.00865254
Gmin = 5.57712e-08
vernier = 0.0115367
vernier = 0.0153823
vernier = 0.00769114
Gmin = 5.45794e-08
vernier = 0.0102549
Gmin = 5.337e-08
vernier = 0.0136731
vernier = 0.00683657
vernier = 0.00911542
Gmin = 5.25412e-08
vernier = 0.0121539
Gmin = 5.11258e-08
vernier = 0.0162052
vernier = 0.00810259
vernier = 0.0108035
Gmin = 5.02032e-08
vernier = 0.0144046
vernier = 0.0072023
Gmin = 4.93527e-08
vernier = 0.00960307
vernier = 0.0128041
vernier = 0.00640204
Gmin = 4.84924e-08
vernier = 0.00853606
vernier = 0.0113814
Gmin = 4.75118e-08
vernier = 0.0151752
vernier = 0.0075876
Gmin = 4.6576e-08
vernier = 0.0101168
vernier = 0.0134891
vernier = 0.00674453
Gmin = 4.57019e-08
vernier = 0.00899271
Gmin = 4.48125e-08
vernier = 0.0119903
vernier = 0.00599514
vernier = 0.00799351
Gmin = 4.42016e-08
vernier = 0.010658
Gmin = 4.31555e-08
vernier = 0.0142107
vernier = 0.00710534
vernier = 0.00947379
Gmin = 4.24717e-08
vernier = 0.0126317
vernier = 0.00631586
Gmin = 4.184e-08
vernier = 0.00842114
vernier = 0.0112282
vernier = 0.00561409
Gmin = 4.11997e-08
vernier = 0.00748545
vernier = 0.0099806
Gmin = 4.0468e-08
vernier = 0.0133075
vernier = 0.00665373
Gmin = 3.97681e-08
vernier = 0.00887164
vernier = 0.0118289
vernier = 0.00591443
Gmin = 3.91128e-08
vernier = 0.0078859
Gmin = 3.84444e-08
vernier = 0.0105145
vernier = 0.00525726
vernier = 0.00700968
Gmin = 3.79844e-08
vernier = 0.00934624
Gmin = 3.71948e-08
vernier = 0.0124617
vernier = 0.00623083
vernier = 0.00830777
Gmin = 3.66775e-08
vernier = 0.011077
vernier = 0.00553851
Gmin = 3.61986e-08
vernier = 0.00738468
vernier = 0.00984624
vernier = 0.00492312
Gmin = 3.57122e-08
vernier = 0.00656416
vernier = 0.00875221
Gmin = 3.51554e-08
vernier = 0.0116696
vernier = 0.0058348
Gmin = 3.46216e-08
vernier = 0.00777973
vernier = 0.010373
vernier = 0.00518649
Gmin = 3.41207e-08
vernier = 0.00691532
Gmin = 3.36088e-08
vernier = 0.00922042
vernier = 0.00461021
vernier = 0.00614694
Gmin = 3.32558e-08
vernier = 0.00819592
Gmin = 3.26488e-08
vernier = 0.0109279
vernier = 0.00546395
vernier = 0.00728526
Gmin = 3.22502e-08
vernier = 0.00971368
vernier = 0.00485684
Gmin = 3.18806e-08
vernier = 0.00647579
vernier = 0.00863438
vernier = 0.00431719
Gmin = 3.15046e-08
vernier = 0.00575625
vernier = 0.007675
Gmin = 3.10734e-08
vernier = 0.0102333
vernier = 0.00511666
Gmin = 3.06592e-08
vernier = 0.00682222
vernier = 0.00909629
vernier = 0.00454814
Gmin = 3.02698e-08
vernier = 0.00606419
Gmin = 2.98712e-08
vernier = 0.00808559
vernier = 0.00404279
vernier = 0.00539039
Gmin = 2.95959e-08
vernier = 0.00718718
Gmin = 2.91215e-08
vernier = 0.00958291
vernier = 0.00479145
vernier = 0.0063886
Gmin = 2.88095e-08
vernier = 0.00851814
vernier = 0.00425907
Gmin = 2.85197e-08
vernier = 0.00567876
vernier = 0.00757167
vernier = 0.00378584
Gmin = 2.82245e-08
vernier = 0.00504778
vernier = 0.00673037
Gmin = 2.78855e-08
vernier = 0.00897383
vernier = 0.00448691
Gmin = 2.75592e-08
vernier = 0.00598255
vernier = 0.00797673
vernier = 0.00398837
Gmin = 2.7252e-08
vernier = 0.00531782
Gmin = 2.6937e-08
vernier = 0.00709043
vernier = 0.00354521
vernier = 0.00472695
Gmin = 2.67192e-08
vernier = 0.0063026
Gmin = 2.63432e-08
vernier = 0.00840346
vernier = 0.00420173
vernier = 0.00560231
Gmin = 2.60955e-08
vernier = 0.00746974
vernier = 0.00373487
Gmin = 2.58652e-08
vernier = 0.00497983
vernier = 0.00663977
vernier = 0.00331988
Gmin = 2.56302e-08
vernier = 0.00442651
vernier = 0.00590201
Gmin = 2.536e-08
vernier = 0.00786935
vernier = 0.00393467
Gmin = 2.50996e-08
vernier = 0.00524623
vernier = 0.00699497
vernier = 0.00349749
Gmin = 2.48541e-08
vernier = 0.00466331
Gmin = 2.46019e-08
vernier = 0.00621775
vernier = 0.00829033
vernier = 0.00414516
Gmin = 2.43201e-08
vernier = 0.00552688
Gmin = 2.40198e-08
vernier = 0.00736918
vernier = 0.00368459
vernier = 0.00491278
Gmin = 2.38216e-08
vernier = 0.00655038
vernier = 0.00327519
Gmin = 2.36371e-08
vernier = 0.00436692
vernier = 0.00582255
Gmin = 2.33466e-08
vernier = 0.0077634
vernier = 0.0038817
vernier = 0.0051756
Gmin = 2.31362e-08
vernier = 0.0069008
vernier = 0.0034504
Gmin = 2.29277e-08
vernier = 0.00460053
vernier = 0.00613404
vernier = 0.00306702
Gmin = 2.27309e-08
vernier = 0.00408936
Gmin = 2.25286e-08
vernier = 0.00545248
vernier = 0.00726997
vernier = 0.00363498
Gmin = 2.23021e-08
vernier = 0.00484665
Gmin = 2.20604e-08
vernier = 0.00646219
vernier = 0.0032311
vernier = 0.00430813
Gmin = 2.19006e-08
vernier = 0.00574417
vernier = 0.00287208
Gmin = 2.17518e-08
vernier = 0.00382944
vernier = 0.00510592
Gmin = 2.15172e-08
vernier = 0.0068079
vernier = 0.00340395
vernier = 0.0045386
Gmin = 2.13471e-08
vernier = 0.00605146
vernier = 0.00302573
Gmin = 2.11783e-08
vernier = 0.00403431
vernier = 0.00537907
Gmin = 2.09624e-08
vernier = 0.00268954
Gmin = 2.0808e-08
vernier = 0.00358605
vernier = 0.0047814
Gmin = 2.05977e-08
vernier = 0.00637519
vernier = 0.0031876
vernier = 0.00425013
Gmin = 2.04452e-08
vernier = 0.00566684
vernier = 0.00283342
Gmin = 2.02937e-08
vernier = 0.00377789
vernier = 0.00503719
Gmin = 2.00999e-08
vernier = 0.00671625
vernier = 0.00335812
Gmin = 1.9932e-08
vernier = 0.0044775
vernier = 0.00596999
vernier = 0.002985
Gmin = 1.97673e-08
vernier = 0.00397999
Gmin = 1.95911e-08
vernier = 0.00530666
vernier = 0.00265333
vernier = 0.00353777
Gmin = 1.94745e-08
vernier = 0.00471703
vernier = 0.00628937
Gmin = 1.92558e-08
vernier = 0.00314468
vernier = 0.00419291
Gmin = 1.91301e-08
vernier = 0.00559055
vernier = 0.00279527
vernier = 0.00372703
Gmin = 1.90058e-08
vernier = 0.00496937
vernier = 0.00248469
Gmin = 1.88823e-08
vernier = 0.00331291
vernier = 0.00441722
Gmin = 1.8724e-08
vernier = 0.00588962
vernier = 0.00294481
Gmin = 1.85868e-08
vernier = 0.00392641
vernier = 0.00523522
vernier = 0.00261761
Gmin = 1.8452e-08
vernier = 0.00349014
Gmin = 1.83077e-08
vernier = 0.00465352
vernier = 0.0062047
vernier = 0.00310235
Gmin = 1.81523e-08
vernier = 0.00413646
vernier = 0.00551528
Gmin = 1.79734e-08
vernier = 0.00275764
vernier = 0.00367685
Gmin = 1.78705e-08
vernier = 0.00490247
vernier = 0.00245124
vernier = 0.00326831
Gmin = 1.77686e-08
vernier = 0.00435775
Gmin = 1.76001e-08
vernier = 0.00581033
vernier = 0.00290517
vernier = 0.00387355
Gmin = 1.74833e-08
vernier = 0.00516474
vernier = 0.00258237
Gmin = 1.73709e-08
vernier = 0.00344316
vernier = 0.00459087
vernier = 0.00229544
Gmin = 1.72604e-08
vernier = 0.00306058
Gmin = 1.7142e-08
vernier = 0.00408078
vernier = 0.00544103
vernier = 0.00272052
Gmin = 1.70143e-08
vernier = 0.00362735
vernier = 0.00483647
Gmin = 1.68671e-08
vernier = 0.00241824
vernier = 0.00322431
Gmin = 1.67824e-08
vernier = 0.00429908
vernier = 0.00573211
vernier = 0.00286605
Gmin = 1.66477e-08
vernier = 0.00382141
Gmin = 1.65092e-08
vernier = 0.00509521
vernier = 0.0025476
vernier = 0.0033968
Gmin = 1.64131e-08
vernier = 0.00452907
vernier = 0.00226453
Gmin = 1.63205e-08
vernier = 0.00301938
vernier = 0.00402584
Gmin = 1.61886e-08
vernier = 0.00536778
vernier = 0.00268389
Gmin = 1.60858e-08
vernier = 0.00357852
vernier = 0.00477136
vernier = 0.00238568
Gmin = 1.59807e-08
vernier = 0.00318091
vernier = 0.00424121
Gmin = 1.58594e-08
vernier = 0.0021206
vernier = 0.00282747
Gmin = 1.57895e-08
vernier = 0.00376996
vernier = 0.00502661
vernier = 0.00251331
Gmin = 1.56783e-08
vernier = 0.00335107
Gmin = 1.55639e-08
vernier = 0.0044681
vernier = 0.00223405
vernier = 0.00297873
Gmin = 1.54844e-08
vernier = 0.00397164
Gmin = 1.53467e-08
vernier = 0.00529552
vernier = 0.00264776
vernier = 0.00353034
Gmin = 1.52556e-08
vernier = 0.00470712
vernier = 0.00235356
Gmin = 1.51706e-08
vernier = 0.00313808
vernier = 0.00418411
vernier = 0.00209205
Gmin = 1.50836e-08
vernier = 0.00278941
vernier = 0.00371921
Gmin = 1.49832e-08
vernier = 0.00495894
vernier = 0.00247947
Gmin = 1.4886e-08
vernier = 0.00330596
vernier = 0.00440794
vernier = 0.00220397
Gmin = 1.47941e-08
vernier = 0.00293863
Gmin = 1.46993e-08
vernier = 0.00391817
vernier = 0.00195909
vernier = 0.00261211
Gmin = 1.46335e-08
vernier = 0.00348282
Gmin = 1.45193e-08
vernier = 0.00464375
vernier = 0.00232188
vernier = 0.00309584
Gmin = 1.44437e-08
vernier = 0.00412778
vernier = 0.00206389
Gmin = 1.43731e-08
vernier = 0.00275185
vernier = 0.00366914
Gmin = 1.42615e-08
vernier = 0.00489218
vernier = 0.00244609
vernier = 0.00326145
Gmin = 1.41803e-08
vernier = 0.0043486
vernier = 0.0021743
Gmin = 1.40997e-08
vernier = 0.00289907
vernier = 0.00386542
vernier = 0.00193271
Gmin = 1.40232e-08
vernier = 0.00257695
Gmin = 1.39444e-08
vernier = 0.00343593
vernier = 0.00458124
vernier = 0.00229062
Gmin = 1.38559e-08
vernier = 0.00305416
Gmin = 1.37611e-08
vernier = 0.00407221
vernier = 0.0020361
vernier = 0.00271481
Gmin = 1.36982e-08
vernier = 0.00361974
vernier = 0.00180987
Gmin = 1.36395e-08
vernier = 0.00241316
vernier = 0.00321754
Gmin = 1.35465e-08
vernier = 0.00429006
vernier = 0.00214503
vernier = 0.00286004
Gmin = 1.34789e-08
vernier = 0.00381338
vernier = 0.00190669
Gmin = 1.34117e-08
vernier = 0.00254226
vernier = 0.00338967
Gmin = 1.33253e-08
vernier = 0.00451956
vernier = 0.00225978
Gmin = 1.32503e-08
vernier = 0.00301304
vernier = 0.00401739
vernier = 0.00200869
Gmin = 1.31765e-08
vernier = 0.00267826
Gmin = 1.30973e-08
vernier = 0.00357101
vernier = 0.0017855
vernier = 0.00238067
Gmin = 1.30448e-08
vernier = 0.00317423
vernier = 0.0042323
Gmin = 1.2946e-08
vernier = 0.00211615
vernier = 0.00282153
Gmin = 1.28891e-08
vernier = 0.00376205
vernier = 0.00188102
vernier = 0.00250803
Gmin = 1.28327e-08
vernier = 0.00334404
vernier = 0.00167202
Gmin = 1.27765e-08
vernier = 0.00222936
vernier = 0.00297248
Gmin = 1.27043e-08
vernier = 0.0039633
vernier = 0.00198165
Gmin = 1.26416e-08
vernier = 0.0026422
vernier = 0.00352293
vernier = 0.00176147
Gmin = 1.25798e-08
vernier = 0.00234862
Gmin = 1.25135e-08
vernier = 0.0031315
vernier = 0.00417533
vernier = 0.00208766
Gmin = 1.24419e-08
vernier = 0.00278355
vernier = 0.0037114
Gmin = 1.23592e-08
vernier = 0.0018557
vernier = 0.00247427
Gmin = 1.23116e-08
vernier = 0.00329902
vernier = 0.00164951
vernier = 0.00219935
Gmin = 1.22643e-08
vernier = 0.00293246
Gmin = 1.21859e-08
vernier = 0.00390995
vernier = 0.00195497
vernier = 0.00260663
Gmin = 1.21314e-08
vernier = 0.00347551
vernier = 0.00173775
Gmin = 1.20789e-08
vernier = 0.002317
vernier = 0.00308934
Gmin = 1.20039e-08
vernier = 0.00411911
vernier = 0.00205956
Gmin = 1.19453e-08
vernier = 0.00274608
vernier = 0.00366143
vernier = 0.00183072
Gmin = 1.18854e-08
vernier = 0.00244096
vernier = 0.00325461
Gmin = 1.18161e-08
vernier = 0.0016273
vernier = 0.00216974
Gmin = 1.17761e-08
vernier = 0.00289298
vernier = 0.00385731
vernier = 0.00192865
Gmin = 1.17124e-08
vernier = 0.00257154
Gmin = 1.16467e-08
vernier = 0.00342872
vernier = 0.00171436
vernier = 0.00228581
Gmin = 1.16011e-08
vernier = 0.00304775
vernier = 0.00152387
Gmin = 1.1557e-08
vernier = 0.00203183
vernier = 0.00270911
Gmin = 1.14941e-08
vernier = 0.00361214
vernier = 0.00180607
Gmin = 1.14449e-08
vernier = 0.00240809
vernier = 0.00321079
vernier = 0.0016054
Gmin = 1.13945e-08
vernier = 0.00214053
vernier = 0.00285403
Gmin = 1.13362e-08
vernier = 0.00380538
vernier = 0.00190269
Gmin = 1.12798e-08
vernier = 0.00253692
vernier = 0.00338256
vernier = 0.00169128
Gmin = 1.12262e-08
vernier = 0.00225504
Gmin = 1.1171e-08
vernier = 0.00300672
vernier = 0.00150336
vernier = 0.00200448
Gmin = 1.11326e-08
vernier = 0.00267264
Gmin = 1.10659e-08
vernier = 0.00356351
vernier = 0.00178176
vernier = 0.00237567
Gmin = 1.10216e-08
vernier = 0.00316757
vernier = 0.00158378
Gmin = 1.09802e-08
vernier = 0.00211171
vernier = 0.00281561
Gmin = 1.09148e-08
vernier = 0.00375415
vernier = 0.00187707
vernier = 0.00250276
Gmin = 1.08671e-08
vernier = 0.00333702
vernier = 0.00166851
Gmin = 1.08196e-08
vernier = 0.00222468
vernier = 0.00296624
vernier = 0.00148312
Gmin = 1.07746e-08
vernier = 0.00197749
Gmin = 1.07281e-08
vernier = 0.00263665
vernier = 0.00351554
vernier = 0.00175777
Gmin = 1.06758e-08
vernier = 0.00234369
Gmin = 1.06196e-08
vernier = 0.00312492
vernier = 0.00156246
vernier = 0.00208328
Gmin = 1.05824e-08
vernier = 0.00277771
vernier = 0.00138885
Gmin = 1.05475e-08
vernier = 0.0018518
vernier = 0.00246907
Gmin = 1.04924e-08
vernier = 0.00329209
vernier = 0.00164605
vernier = 0.00219473
Gmin = 1.04521e-08
vernier = 0.0029263
vernier = 0.00146315
Gmin = 1.04121e-08
vernier = 0.00195087
vernier = 0.00260116
Gmin = 1.03606e-08
vernier = 0.00346821
vernier = 0.00173411
Gmin = 1.03158e-08
vernier = 0.00231214
vernier = 0.00308285
vernier = 0.00154143
Gmin = 1.02717e-08
vernier = 0.00205523
Gmin = 1.02243e-08
vernier = 0.00274031
vernier = 0.00137016
vernier = 0.00182687
Gmin = 1.01928e-08
vernier = 0.00243583
vernier = 0.00324777
Gmin = 1.01335e-08
vernier = 0.00162389
vernier = 0.00216518
Gmin = 1.00993e-08
vernier = 0.00288691
vernier = 0.00144345
vernier = 0.00192461
Gmin = 1.00654e-08
vernier = 0.00256614
Gmin = 1.0009e-08
vernier = 0.00342152
vernier = 0.00171076
vernier = 0.00228101
Gmin = 9.96989e-09
vernier = 0.00304135
vernier = 0.00152067
Gmin = 9.93207e-09
vernier = 0.00202757
vernier = 0.00270342
vernier = 0.00135171
Gmin = 9.89481e-09
vernier = 0.00180228
Gmin = 9.85478e-09
vernier = 0.00240304
vernier = 0.00320405
vernier = 0.00160203
Gmin = 9.81147e-09
vernier = 0.00213603
vernier = 0.00284804
Gmin = 9.7614e-09
vernier = 0.00142402
vernier = 0.0018987
Gmin = 9.73249e-09
vernier = 0.00253159
vernier = 0.00337546
vernier = 0.00168773
Gmin = 9.68641e-09
vernier = 0.0022503
Gmin = 9.63886e-09
vernier = 0.0030004
vernier = 0.0015002
vernier = 0.00200027
Gmin = 9.60579e-09
vernier = 0.00266702
vernier = 0.00133351
Gmin = 9.57382e-09
vernier = 0.00177802
vernier = 0.00237069
Gmin = 9.5282e-09
vernier = 0.00316092
vernier = 0.00158046
Gmin = 9.49251e-09
vernier = 0.00210728
vernier = 0.0028097
vernier = 0.00140485
Gmin = 9.45591e-09
vernier = 0.00187313
vernier = 0.00249751
Gmin = 9.41358e-09
vernier = 0.00124876
vernier = 0.00166501
Gmin = 9.38913e-09
vernier = 0.00222001
vernier = 0.00296001
vernier = 0.00148001
Gmin = 9.35014e-09
vernier = 0.00197334
Gmin = 9.30987e-09
vernier = 0.00263112
vernier = 0.00131556
vernier = 0.00175408
Gmin = 9.28185e-09
vernier = 0.00233877
Gmin = 9.23315e-09
vernier = 0.00311836
vernier = 0.00155918
vernier = 0.00207891
Gmin = 9.20082e-09
vernier = 0.00277188
vernier = 0.00138594
Gmin = 9.17059e-09
vernier = 0.00184792
vernier = 0.00246389
vernier = 0.00123194
Gmin = 9.13959e-09
vernier = 0.00164259
vernier = 0.00219012
Gmin = 9.1037e-09
vernier = 0.00292016
vernier = 0.00146008
Gmin = 9.06888e-09
vernier = 0.00194677
vernier = 0.0025957
vernier = 0.00129785
Gmin = 9.03584e-09
vernier = 0.00173046
Gmin = 9.00171e-09
vernier = 0.00230729
vernier = 0.00307638
vernier = 0.00153819
Gmin = 8.96329e-09
vernier = 0.00205092
Gmin = 8.92204e-09
vernier = 0.00273456
vernier = 0.00136728
vernier = 0.00182304
Gmin = 8.89464e-09
vernier = 0.00243072
vernier = 0.00121536
Gmin = 8.869e-09
vernier = 0.00162048
vernier = 0.00216064
Gmin = 8.82839e-09
vernier = 0.00288085
vernier = 0.00144042
vernier = 0.00192057
Gmin = 8.79877e-09
vernier = 0.00256075
vernier = 0.00128038
Gmin = 8.76925e-09
vernier = 0.00170717
vernier = 0.00227622
Gmin = 8.73129e-09
vernier = 0.00303496
vernier = 0.00151748
Gmin = 8.69824e-09
vernier = 0.00202331
vernier = 0.00269774
vernier = 0.00134887
Gmin = 8.66568e-09
vernier = 0.0017985
Gmin = 8.63069e-09
vernier = 0.00239799
vernier = 0.001199
vernier = 0.00159866
Gmin = 8.60744e-09
vernier = 0.00213155
vernier = 0.00284207
Gmin = 8.56361e-09
vernier = 0.00142103
vernier = 0.00189471
Gmin = 8.5383e-09
vernier = 0.00252628
vernier = 0.00126314
vernier = 0.00168419
Gmin = 8.51317e-09
vernier = 0.00224558
vernier = 0.00112279
Gmin = 8.48813e-09
vernier = 0.00149705
vernier = 0.00199607
Gmin = 8.4559e-09
vernier = 0.00266143
vernier = 0.00133071
Gmin = 8.42782e-09
vernier = 0.00177428
vernier = 0.00236571
vernier = 0.00118286
Gmin = 8.40014e-09
vernier = 0.00157714
Gmin = 8.37039e-09
vernier = 0.00210285
vernier = 0.0028038
vernier = 0.0014019
Gmin = 8.33819e-09
vernier = 0.0018692
vernier = 0.00249227
Gmin = 8.30094e-09
vernier = 0.00124613
vernier = 0.00166151
Gmin = 8.27942e-09
vernier = 0.00221535
vernier = 0.00110767
vernier = 0.0014769
Gmin = 8.25806e-09
vernier = 0.0019692
Gmin = 8.22257e-09
vernier = 0.0026256
vernier = 0.0013128
vernier = 0.0017504
Gmin = 8.19787e-09
vernier = 0.00233386
vernier = 0.00116693
Gmin = 8.174e-09
vernier = 0.00155591
vernier = 0.00207454
Gmin = 8.1399e-09
vernier = 0.00276606
vernier = 0.00138303
Gmin = 8.11321e-09
vernier = 0.00184404
vernier = 0.00245872
vernier = 0.00122936
Gmin = 8.08583e-09
vernier = 0.00163914
vernier = 0.00218552
Gmin = 8.05415e-09
vernier = 0.00109276
vernier = 0.00145702
Gmin = 8.03583e-09
vernier = 0.00194269
vernier = 0.00259025
vernier = 0.00129512
Gmin = 8.00662e-09
vernier = 0.00172683
Gmin = 7.97644e-09
vernier = 0.00230244
vernier = 0.00115122
vernier = 0.00153496
Gmin = 7.95543e-09
vernier = 0.00204661
Gmin = 7.91889e-09
vernier = 0.00272882
vernier = 0.00136441
vernier = 0.00181921
Gmin = 7.89462e-09
vernier = 0.00242562
vernier = 0.00121281
Gmin = 7.87192e-09
vernier = 0.00161708
vernier = 0.0021561
vernier = 0.00107805
Gmin = 7.84862e-09
vernier = 0.0014374
vernier = 0.00191653
Gmin = 7.82164e-09
vernier = 0.00255538
vernier = 0.00127769
Gmin = 7.79546e-09
vernier = 0.00170358
vernier = 0.00227145
vernier = 0.00113572
Gmin = 7.7706e-09
vernier = 0.0015143
Gmin = 7.74491e-09
vernier = 0.00201906
vernier = 0.00269208
vernier = 0.00134604
Gmin = 7.71598e-09
vernier = 0.00179472
Gmin = 7.68489e-09
vernier = 0.00239296
vernier = 0.00119648
vernier = 0.00159531
Gmin = 7.66423e-09
vernier = 0.00212707
vernier = 0.00106354
Gmin = 7.6449e-09
vernier = 0.00141805
vernier = 0.00189073
Gmin = 7.61425e-09
vernier = 0.00252098
vernier = 0.00126049
vernier = 0.00168065
Gmin = 7.59189e-09
vernier = 0.00224087
vernier = 0.00112043
Gmin = 7.5696e-09
vernier = 0.00149391
vernier = 0.00199188
vernier = 0.00099594
Gmin = 7.54843e-09
vernier = 0.00132792
Gmin = 7.52654e-09
vernier = 0.00177056
vernier = 0.00236074
vernier = 0.00118037
Gmin = 7.50188e-09
vernier = 0.00157383
Gmin = 7.47536e-09
vernier = 0.00209844
vernier = 0.00104922
vernier = 0.00139896
Gmin = 7.45774e-09
vernier = 0.00186528
vernier = 0.00248704
Gmin = 7.42449e-09
vernier = 0.00124352
vernier = 0.00165802
Gmin = 7.40529e-09
vernier = 0.0022107
vernier = 0.00110535
vernier = 0.0014738
Gmin = 7.38621e-09
vernier = 0.00196506
vernier = 0.000982532
Gmin = 7.36719e-09
vernier = 0.00131004
vernier = 0.00174672
Gmin = 7.34271e-09
vernier = 0.00232896
vernier = 0.00116448
Gmin = 7.32137e-09
vernier = 0.00155264
vernier = 0.00207019
vernier = 0.00103509
Gmin = 7.30032e-09
vernier = 0.00138013
Gmin = 7.27769e-09
vernier = 0.00184017
vernier = 0.00245355
vernier = 0.00122678
Gmin = 7.25319e-09
vernier = 0.0016357
vernier = 0.00218094
Gmin = 7.22482e-09
vernier = 0.00109047
vernier = 0.00145396
Gmin = 7.20843e-09
vernier = 0.00193861
vernier = 0.000969305
vernier = 0.00129241
Gmin = 7.19215e-09
vernier = 0.00172321
Gmin = 7.16509e-09
vernier = 0.00229761
vernier = 0.0011488
vernier = 0.00153174
Gmin = 7.14626e-09
vernier = 0.00204232
vernier = 0.00102116
Gmin = 7.12804e-09
vernier = 0.00136155
vernier = 0.00181539
Gmin = 7.10201e-09
vernier = 0.00242052
vernier = 0.00121026
Gmin = 7.08163e-09
vernier = 0.00161368
vernier = 0.00215158
vernier = 0.00107579
Gmin = 7.06071e-09
vernier = 0.00143438
vernier = 0.00191251
Gmin = 7.0365e-09
vernier = 0.000956255
vernier = 0.00127501
Gmin = 7.02249e-09
vernier = 0.00170001
vernier = 0.00226668
vernier = 0.00113334
Gmin = 7.00015e-09
vernier = 0.00151112
Gmin = 6.97705e-09
vernier = 0.00201482
vernier = 0.00100741
vernier = 0.00134322
Gmin = 6.96097e-09
vernier = 0.00179095
Gmin = 6.93298e-09
vernier = 0.00238794
vernier = 0.00119397
vernier = 0.00159196
Gmin = 6.91438e-09
vernier = 0.00212261
vernier = 0.0010613
Gmin = 6.89698e-09
vernier = 0.00141507
vernier = 0.00188676
vernier = 0.000943382
Gmin = 6.87911e-09
vernier = 0.00125784
vernier = 0.00167712
Gmin = 6.85841e-09
vernier = 0.00223616
vernier = 0.00111808
Gmin = 6.83832e-09
vernier = 0.00149077
vernier = 0.0019877
vernier = 0.000993849
Gmin = 6.81923e-09
vernier = 0.00132513
Gmin = 6.7995e-09
vernier = 0.00176684
vernier = 0.00235579
vernier = 0.00117789
Gmin = 6.77726e-09
vernier = 0.00157053
Gmin = 6.75336e-09
vernier = 0.00209403
vernier = 0.00104702
vernier = 0.00139602
Gmin = 6.73747e-09
vernier = 0.00186136
vernier = 0.000930681
Gmin = 6.7226e-09
vernier = 0.00124091
vernier = 0.00165454
Gmin = 6.69901e-09
vernier = 0.00220606
vernier = 0.00110303
vernier = 0.0014707
Gmin = 6.68179e-09
vernier = 0.00196094
vernier = 0.00098047
Gmin = 6.66462e-09
vernier = 0.00130729
vernier = 0.00174306
Gmin = 6.64252e-09
vernier = 0.00232407
vernier = 0.00116204
Gmin = 6.62325e-09
vernier = 0.00154938
vernier = 0.00206584
vernier = 0.00103292
Gmin = 6.60425e-09
vernier = 0.00137723
Gmin = 6.58382e-09
vernier = 0.0018363
vernier = 0.000918152
vernier = 0.0012242
Gmin = 6.57024e-09
vernier = 0.00163227
vernier = 0.00217636
Gmin = 6.5446e-09
vernier = 0.00108818
vernier = 0.00145091
Gmin = 6.52978e-09
vernier = 0.00193454
vernier = 0.00096727
vernier = 0.00128969
Gmin = 6.51506e-09
vernier = 0.00171959
Gmin = 6.49061e-09
vernier = 0.00229279
vernier = 0.00114639
vernier = 0.00152852
Gmin = 6.47358e-09
vernier = 0.00203803
vernier = 0.00101902
Gmin = 6.45711e-09
vernier = 0.00135869
vernier = 0.00181158
vernier = 0.000905791
Gmin = 6.44087e-09
vernier = 0.00120772
Gmin = 6.42339e-09
vernier = 0.00161029
vernier = 0.00214706
vernier = 0.00107353
Gmin = 6.40446e-09
vernier = 0.00143137
vernier = 0.0019085
Gmin = 6.38254e-09
vernier = 0.000954248
vernier = 0.00127233
Gmin = 6.36987e-09
vernier = 0.00169644
vernier = 0.00084822
vernier = 0.00113096
Gmin = 6.35727e-09
vernier = 0.00150795
Gmin = 6.33634e-09
vernier = 0.00201059
vernier = 0.0010053
vernier = 0.0013404
Gmin = 6.32176e-09
vernier = 0.00178719
vernier = 0.000893597
Gmin = 6.30766e-09
vernier = 0.00119146
vernier = 0.00158862
Gmin = 6.28749e-09
vernier = 0.00211815
vernier = 0.00105908
Gmin = 6.2717e-09
vernier = 0.0014121
vernier = 0.0018828
vernier = 0.000941401
Gmin = 6.25549e-09
vernier = 0.0012552
vernier = 0.0016736
Gmin = 6.23671e-09
vernier = 0.000836801
vernier = 0.00111573
Gmin = 6.22585e-09
vernier = 0.00148765
vernier = 0.00198353
vernier = 0.000991763
Gmin = 6.20851e-09
vernier = 0.00132235
Gmin = 6.19058e-09
vernier = 0.00176313
vernier = 0.000881567
vernier = 0.00117542
Gmin = 6.17808e-09
vernier = 0.00156723
Gmin = 6.15634e-09
vernier = 0.00208964
vernier = 0.00104482
vernier = 0.00139309
Gmin = 6.14189e-09
vernier = 0.00185746
vernier = 0.000928728
Gmin = 6.12836e-09
vernier = 0.0012383
vernier = 0.00165107
vernier = 0.000825535
Gmin = 6.11446e-09
vernier = 0.00110071
vernier = 0.00146762
Gmin = 6.09836e-09
vernier = 0.00195682
vernier = 0.000978411
Gmin = 6.08272e-09
vernier = 0.00130455
vernier = 0.0017394
vernier = 0.000869699
Gmin = 6.06786e-09
vernier = 0.0011596
Gmin = 6.05249e-09
vernier = 0.00154613
vernier = 0.00206151
vernier = 0.00103075
Gmin = 6.03517e-09
vernier = 0.00137434
Gmin = 6.01654e-09
vernier = 0.00183245
vernier = 0.000916225
vernier = 0.00122163
Gmin = 6.00415e-09
vernier = 0.00162884
vernier = 0.000814421
Gmin = 5.99255e-09
vernier = 0.00108589
vernier = 0.00144786
Gmin = 5.97414e-09
vernier = 0.00193048
vernier = 0.000965239
vernier = 0.00128699
Gmin = 5.96071e-09
vernier = 0.00171598
vernier = 0.00085799
Gmin = 5.9473e-09
vernier = 0.00114399
vernier = 0.00152532
Gmin = 5.93003e-09
vernier = 0.00203375
vernier = 0.00101688
Gmin = 5.91498e-09
vernier = 0.00135583
vernier = 0.00180778
vernier = 0.00090389
Gmin = 5.90013e-09
vernier = 0.00120519
Gmin = 5.88416e-09
vernier = 0.00160691
vernier = 0.000803457
vernier = 0.00107128
Gmin = 5.87353e-09
vernier = 0.00142837
vernier = 0.00190449
Gmin = 5.85347e-09
vernier = 0.000952245
vernier = 0.00126966
Gmin = 5.84187e-09
vernier = 0.00169288
vernier = 0.000846439
vernier = 0.00112859
Gmin = 5.83034e-09
vernier = 0.00150478
Gmin = 5.81119e-09
vernier = 0.00200637
vernier = 0.00100319
vernier = 0.00133758
Gmin = 5.79784e-09
vernier = 0.00178344
vernier = 0.000891721
Gmin = 5.78493e-09
vernier = 0.00118896
vernier = 0.00158528
vernier = 0.000792641
Gmin = 5.7722e-09
vernier = 0.00105685
Gmin = 5.75849e-09
vernier = 0.00140914
vernier = 0.00187885
vernier = 0.000939425
Gmin = 5.74363e-09
vernier = 0.00125257
vernier = 0.00167009
Gmin = 5.72643e-09
vernier = 0.000835044
vernier = 0.00111339
Gmin = 5.71647e-09
vernier = 0.00148452
vernier = 0.00197936
vernier = 0.000989681
Gmin = 5.70059e-09
vernier = 0.00131957
Gmin = 5.68416e-09
vernier = 0.00175943
vernier = 0.000879716
vernier = 0.00117295
Gmin = 5.67271e-09
vernier = 0.00156394
vernier = 0.00078197
Gmin = 5.66163e-09
vernier = 0.00104263
vernier = 0.00139017
Gmin = 5.64579e-09
vernier = 0.00185356
vernier = 0.000926778
Gmin = 5.63338e-09
vernier = 0.0012357
vernier = 0.0016476
vernier = 0.000823802
Gmin = 5.62064e-09
vernier = 0.0010984
vernier = 0.00146454
Gmin = 5.60587e-09
vernier = 0.00195272
vernier = 0.000976358
Gmin = 5.59152e-09
vernier = 0.00130181
vernier = 0.00173575
vernier = 0.000867873
Gmin = 5.57789e-09
vernier = 0.00115716
Gmin = 5.56379e-09
vernier = 0.00154288
vernier = 0.000771442
vernier = 0.00102859
Gmin = 5.55396e-09
vernier = 0.00137145
Gmin = 5.53686e-09
vernier = 0.0018286
vernier = 0.000914301
vernier = 0.00121907
Gmin = 5.52548e-09
vernier = 0.00162542
vernier = 0.000812712
Gmin = 5.51483e-09
vernier = 0.00108362
vernier = 0.00144482
Gmin = 5.49792e-09
vernier = 0.00192643
vernier = 0.000963213
vernier = 0.00128428
Gmin = 5.48558e-09
vernier = 0.00171238
vernier = 0.000856189
Gmin = 5.47327e-09
vernier = 0.00114159
vernier = 0.00152211
vernier = 0.000761057
Gmin = 5.46157e-09
vernier = 0.00101474
Gmin = 5.44946e-09
vernier = 0.00135299
vernier = 0.00180398
vernier = 0.000901992
Gmin = 5.43581e-09
vernier = 0.00120266
Gmin = 5.42112e-09
vernier = 0.00160354
vernier = 0.000801771
vernier = 0.00106903
Gmin = 5.41135e-09
vernier = 0.00142537
vernier = 0.00190049
Gmin = 5.3929e-09
vernier = 0.000950246
vernier = 0.00126699
Gmin = 5.38224e-09
vernier = 0.00168933
vernier = 0.000844663
vernier = 0.00112622
Gmin = 5.37164e-09
vernier = 0.00150162
vernier = 0.000750811
Gmin = 5.36107e-09
vernier = 0.00100108
vernier = 0.00133477
Gmin = 5.34745e-09
vernier = 0.0017797
vernier = 0.000889849
Gmin = 5.33557e-09
vernier = 0.00118647
vernier = 0.00158195
vernier = 0.000790977
Gmin = 5.32384e-09
vernier = 0.00105464
Gmin = 5.31123e-09
vernier = 0.00140618
vernier = 0.00187491
vernier = 0.000937453
Gmin = 5.29755e-09
vernier = 0.00124994
vernier = 0.00166658
Gmin = 5.28172e-09
vernier = 0.000833291
vernier = 0.00111105
Gmin = 5.27256e-09
vernier = 0.00148141
vernier = 0.000740703
vernier = 0.000987604
Gmin = 5.26345e-09
vernier = 0.0013168
Gmin = 5.24831e-09
vernier = 0.00175574
vernier = 0.00087787
vernier = 0.00117049
Gmin = 5.23777e-09
vernier = 0.00156066
vernier = 0.000780328
Gmin = 5.22756e-09
vernier = 0.00104044
vernier = 0.00138725
Gmin = 5.21297e-09
vernier = 0.00184967
vernier = 0.000924833
Gmin = 5.20153e-09
vernier = 0.00123311
vernier = 0.00164415
vernier = 0.000822073
Gmin = 5.18979e-09
vernier = 0.0010961
vernier = 0.00146146
Gmin = 5.17618e-09
vernier = 0.000730731
vernier = 0.000974308
Gmin = 5.1683e-09
vernier = 0.00129908
vernier = 0.0017321
vernier = 0.000866051
Gmin = 5.15573e-09
vernier = 0.00115473
Gmin = 5.14273e-09
vernier = 0.00153965
vernier = 0.000769823
vernier = 0.00102643
Gmin = 5.13366e-09
vernier = 0.00136857
Gmin = 5.11788e-09
vernier = 0.00182476
vernier = 0.000912382
vernier = 0.00121651
Gmin = 5.10739e-09
vernier = 0.00162201
vernier = 0.000811006
Gmin = 5.09756e-09
vernier = 0.00108134
vernier = 0.00144179
vernier = 0.000720894
Gmin = 5.08747e-09
vernier = 0.000961191
vernier = 0.00128159
Gmin = 5.07577e-09
vernier = 0.00170878
vernier = 0.000854392
Gmin = 5.0644e-09
vernier = 0.00113919
vernier = 0.00151892
vernier = 0.000759459
Gmin = 5.05359e-09
vernier = 0.00101261
Gmin = 5.04241e-09
vernier = 0.00135015
vernier = 0.0018002
vernier = 0.000900099
Gmin = 5.02981e-09
vernier = 0.00120013
Gmin = 5.01625e-09
vernier = 0.00160018
vernier = 0.000800088
vernier = 0.00106678
Gmin = 5.00722e-09
vernier = 0.00142238
vernier = 0.000711189
Gmin = 4.99877e-09
vernier = 0.000948251
vernier = 0.00126433
Gmin = 4.98536e-09
vernier = 0.00168578
vernier = 0.000842889
vernier = 0.00112385
Gmin = 4.97557e-09
vernier = 0.00149847
vernier = 0.000749235
Gmin = 4.9658e-09
vernier = 0.000998979
vernier = 0.00133197
vernier = 0.000665986
Gmin = 4.9565e-09
vernier = 0.000887981
Gmin = 4.94689e-09
vernier = 0.00118397
vernier = 0.00157863
vernier = 0.000789316
Gmin = 4.93604e-09
vernier = 0.00105242
Gmin = 4.92437e-09
vernier = 0.00140323
vernier = 0.000701614
vernier = 0.000935485
Gmin = 4.9166e-09
vernier = 0.00124731
vernier = 0.00166308
Gmin = 4.90193e-09
vernier = 0.000831542
vernier = 0.00110872
Gmin = 4.89345e-09
vernier = 0.0014783
vernier = 0.000739148
vernier = 0.000985531
Gmin = 4.88502e-09
vernier = 0.00131404
vernier = 0.00065702
Gmin = 4.8766e-09
vernier = 0.000876027
vernier = 0.00116804
Gmin = 4.86575e-09
vernier = 0.00155738
vernier = 0.00077869
Gmin = 4.85629e-09
vernier = 0.00103825
vernier = 0.00138434
vernier = 0.000692169
Gmin = 4.84695e-09
vernier = 0.000922891
Gmin = 4.8369e-09
vernier = 0.00123052
vernier = 0.00164069
vernier = 0.000820347
Gmin = 4.826e-09
vernier = 0.0010938
vernier = 0.00145839
Gmin = 4.81337e-09
vernier = 0.000729197
vernier = 0.000972263
Gmin = 4.80607e-09
vernier = 0.00129635
vernier = 0.000648175
vernier = 0.000864233
Gmin = 4.79881e-09
vernier = 0.00115231
Gmin = 4.78673e-09
vernier = 0.00153641
vernier = 0.000768207
vernier = 0.00102428
Gmin = 4.77831e-09
vernier = 0.0013657
vernier = 0.00068285
Gmin = 4.77016e-09
vernier = 0.000910467
vernier = 0.00121396
Gmin = 4.7585e-09
vernier = 0.00161861
vernier = 0.000809303
Gmin = 4.74937e-09
vernier = 0.00107907
vernier = 0.00143876
vernier = 0.00071938
Gmin = 4.73998e-09
vernier = 0.000959174
vernier = 0.0012789
Gmin = 4.7291e-09
vernier = 0.000639449
vernier = 0.000852598
Gmin = 4.72281e-09
vernier = 0.0011368
vernier = 0.00151573
vernier = 0.000757865
Gmin = 4.71275e-09
vernier = 0.00101049
Gmin = 4.70235e-09
vernier = 0.00134731
vernier = 0.000673657
vernier = 0.000898209
Gmin = 4.69509e-09
vernier = 0.00119761
Gmin = 4.68246e-09
vernier = 0.00159682
vernier = 0.000798408
vernier = 0.00106454
Gmin = 4.67406e-09
vernier = 0.00141939
vernier = 0.000709696
Gmin = 4.66619e-09
vernier = 0.000946261
vernier = 0.00126168
vernier = 0.00063084
Gmin = 4.6581e-09
vernier = 0.00084112
vernier = 0.00112149
Gmin = 4.64872e-09
vernier = 0.00149532
vernier = 0.000747662
Gmin = 4.63961e-09
vernier = 0.000996882
vernier = 0.00132918
vernier = 0.000664588
Gmin = 4.63095e-09
vernier = 0.000886117
Gmin = 4.62198e-09
vernier = 0.00118149
vernier = 0.00157532
vernier = 0.000787659
Gmin = 4.61187e-09
vernier = 0.00105021
vernier = 0.000525106
Gmin = 4.604e-09
vernier = 0.000700141
Gmin = 4.59676e-09
vernier = 0.000933521
vernier = 0.0012447
vernier = 0.000622348
Gmin = 4.5889e-09
vernier = 0.000829796
vernier = 0.0011064
Gmin = 4.57979e-09
vernier = 0.00147519
vernier = 0.000737596
Gmin = 4.57093e-09
vernier = 0.000983462
vernier = 0.00131128
vernier = 0.000655641
Gmin = 4.56251e-09
vernier = 0.000874188
Gmin = 4.55379e-09
vernier = 0.00116558
vernier = 0.00155411
vernier = 0.000777055
Gmin = 4.54396e-09
vernier = 0.00103607
vernier = 0.000518037
Gmin = 4.53691e-09
vernier = 0.000690716
vernier = 0.000920954
Gmin = 4.52941e-09
vernier = 0.00122794
vernier = 0.000613969
Gmin = 4.52211e-09
vernier = 0.000818625
vernier = 0.0010915
Gmin = 4.51271e-09
vernier = 0.00145533
vernier = 0.000727667
Gmin = 4.50451e-09
vernier = 0.000970222
vernier = 0.00129363
vernier = 0.000646814
Gmin = 4.49642e-09
vernier = 0.000862419
Gmin = 4.4877e-09
vernier = 0.00114989
vernier = 0.00153319
vernier = 0.000766594
Gmin = 4.47825e-09
vernier = 0.00102213
vernier = 0.000511063
Gmin = 4.47168e-09
vernier = 0.000681417
vernier = 0.000908555
Gmin = 4.46394e-09
vernier = 0.00121141
vernier = 0.000605703
Gmin = 4.45719e-09
vernier = 0.000807604
vernier = 0.00107681
Gmin = 4.44753e-09
vernier = 0.00143574
vernier = 0.00071787
Gmin = 4.43995e-09
vernier = 0.00095716
vernier = 0.00127621
vernier = 0.000638107
Gmin = 4.43217e-09
vernier = 0.000850809
vernier = 0.00113441
Gmin = 4.42314e-09
vernier = 0.00151255
vernier = 0.000756274
Gmin = 4.41437e-09
vernier = 0.00100836
vernier = 0.000504182
Gmin = 4.40826e-09
vernier = 0.000672243
vernier = 0.000896324
Gmin = 4.4003e-09
vernier = 0.0011951
vernier = 0.000597549
Gmin = 4.39406e-09
vernier = 0.000796732
vernier = 0.00106231
Gmin = 4.38415e-09
vernier = 0.00141641
vernier = 0.000708206
vernier = 0.000944274
Gmin = 4.37691e-09
vernier = 0.00125903
vernier = 0.000629516
Gmin = 4.36969e-09
vernier = 0.000839354
vernier = 0.00111914
Gmin = 4.36038e-09
vernier = 0.00149218
vernier = 0.000746092
Gmin = 4.35225e-09
vernier = 0.00099479
vernier = 0.000497395
vernier = 0.000663193
Gmin = 4.34693e-09
vernier = 0.000884257
Gmin = 4.33854e-09
vernier = 0.00117901
vernier = 0.000589505
vernier = 0.000786006
Gmin = 4.33268e-09
vernier = 0.00104801
Gmin = 4.32248e-09
vernier = 0.00139734
vernier = 0.000698672
vernier = 0.000931562
Gmin = 4.31569e-09
vernier = 0.00124208
vernier = 0.000621041
Gmin = 4.30933e-09
vernier = 0.000828055
vernier = 0.00110407
Gmin = 4.29923e-09
vernier = 0.0014721
vernier = 0.000736048
vernier = 0.000981397
Gmin = 4.29185e-09
vernier = 0.000490699
vernier = 0.000654265
Gmin = 4.28712e-09
vernier = 0.000872353
vernier = 0.00116314
Gmin = 4.27817e-09
vernier = 0.000581568
vernier = 0.000775424
Gmin = 4.27299e-09
vernier = 0.0010339
vernier = 0.00137853
vernier = 0.000689266
Gmin = 4.26471e-09
vernier = 0.000919021
Gmin = 4.25615e-09
vernier = 0.00122536
vernier = 0.00061268
vernier = 0.000816907
Gmin = 4.25018e-09
vernier = 0.00108921
Gmin = 4.23978e-09
vernier = 0.00145228
vernier = 0.000726139
vernier = 0.000968185
vernier = 0.000484093
Gmin = 4.2349e-09
vernier = 0.000645457
Gmin = 4.22893e-09
vernier = 0.000860609
vernier = 0.00114748
vernier = 0.000573739
Gmin = 4.22219e-09
vernier = 0.000764985
Gmin = 4.21493e-09
vernier = 0.00101998
vernier = 0.00135997
vernier = 0.000679986
Gmin = 4.20705e-09
vernier = 0.000906648
vernier = 0.00120886
Gmin = 4.19793e-09
vernier = 0.000604432
vernier = 0.000805909
Gmin = 4.19264e-09
vernier = 0.00107455
vernier = 0.00143273
vernier = 0.000716363
Gmin = 4.18421e-09
vernier = 0.000955151
vernier = 0.000477575
Gmin = 4.17847e-09
vernier = 0.000636767
vernier = 0.000849023
Gmin = 4.1721e-09
vernier = 0.00113203
vernier = 0.000566015
Gmin = 4.1659e-09
vernier = 0.000754686
vernier = 0.00100625
Gmin = 4.15792e-09
vernier = 0.00134166
vernier = 0.000670832
Gmin = 4.15095e-09
vernier = 0.000894442
vernier = 0.00119259
vernier = 0.000596295
Gmin = 4.14408e-09
vernier = 0.00079506
Gmin = 4.13667e-09
vernier = 0.00106008
vernier = 0.00141344
vernier = 0.000706719
Gmin = 4.12864e-09
vernier = 0.000942292
vernier = 0.000471146
Gmin = 4.12354e-09
vernier = 0.000628195
vernier = 0.000837593
Gmin = 4.11658e-09
vernier = 0.00111679
vernier = 0.000558395
Gmin = 4.10883e-09
vernier = 0.000744526
Gmin = 4.10195e-09
vernier = 0.000992701
vernier = 0.0013236
vernier = 0.000661801
Gmin = 4.0945e-09
vernier = 0.000882401
vernier = 0.00117653
Gmin = 4.08585e-09
vernier = 0.000588267
vernier = 0.000784356
Gmin = 4.08085e-09
vernier = 0.00104581
vernier = 0.00139441
vernier = 0.000697205
Gmin = 4.07285e-09
vernier = 0.000929606
vernier = 0.000464803
Gmin = 4.06742e-09
vernier = 0.000619737
vernier = 0.000826316
Gmin = 4.06138e-09
vernier = 0.00110175
Gmin = 4.05161e-09
vernier = 0.00146901
vernier = 0.000734503
vernier = 0.000979337
Gmin = 4.04479e-09
vernier = 0.00130578
vernier = 0.000652891
Gmin = 4.0382e-09
vernier = 0.000870521
vernier = 0.0011607
vernier = 0.000580348
Gmin = 4.03168e-09
vernier = 0.000773796
Gmin = 4.02467e-09
vernier = 0.00103173
vernier = 0.00137564
vernier = 0.000687819
Gmin = 4.01707e-09
vernier = 0.000917091
vernier = 0.000458546
Gmin = 4.01224e-09
vernier = 0.000611394
vernier = 0.000815192
Gmin = 4.00565e-09
vernier = 0.00108692
vernier = 0.00144923
Gmin = 3.99523e-09
vernier = 0.000724615
vernier = 0.000966153
Gmin = 3.98921e-09
vernier = 0.0012882
vernier = 0.000644102
vernier = 0.000858802
Gmin = 3.98322e-09
vernier = 0.00114507
vernier = 0.000572535
Gmin = 3.97723e-09
vernier = 0.000763379
vernier = 0.00101784
Gmin = 3.96953e-09
vernier = 0.00135712
vernier = 0.000678559
Gmin = 3.9628e-09
vernier = 0.000904745
vernier = 0.000452373
vernier = 0.000603163
Gmin = 3.95839e-09
vernier = 0.000804217
Gmin = 3.95144e-09
vernier = 0.00107229
vernier = 0.00142972
vernier = 0.00071486
Gmin = 3.94359e-09
vernier = 0.000953146
Gmin = 3.93514e-09
vernier = 0.00127086
vernier = 0.00063543
vernier = 0.00084724
Gmin = 3.92952e-09
vernier = 0.00112965
vernier = 0.000564827
Gmin = 3.92425e-09
vernier = 0.000753102
vernier = 0.00100414
Gmin = 3.91589e-09
vernier = 0.00133885
vernier = 0.000669424
vernier = 0.000892565
Gmin = 3.90978e-09
vernier = 0.000446282
vernier = 0.000595043
Gmin = 3.90586e-09
vernier = 0.000793391
vernier = 0.00105785
Gmin = 3.89844e-09
vernier = 0.00141047
vernier = 0.000705236
Gmin = 3.89123e-09
vernier = 0.000940314
vernier = 0.00125375
vernier = 0.000626876
Gmin = 3.88438e-09
vernier = 0.000835834
Gmin = 3.87728e-09
vernier = 0.00111445
vernier = 0.000557223
vernier = 0.000742963
Gmin = 3.87233e-09
vernier = 0.000990618
Gmin = 3.86371e-09
vernier = 0.00132082
vernier = 0.000660412
vernier = 0.000880549
vernier = 0.000440274
Gmin = 3.85967e-09
vernier = 0.000587032
Gmin = 3.85472e-09
vernier = 0.000782709
vernier = 0.00104361
Gmin = 3.84662e-09
vernier = 0.00139148
vernier = 0.000695741
Gmin = 3.84027e-09
vernier = 0.000927655
vernier = 0.00123687
vernier = 0.000618436
Gmin = 3.83375e-09
vernier = 0.000824582
vernier = 0.00109944
Gmin = 3.82618e-09
vernier = 0.000549721
vernier = 0.000732961
Gmin = 3.8218e-09
vernier = 0.000977281
vernier = 0.00130304
vernier = 0.000651521
Gmin = 3.81481e-09
vernier = 0.000868694
vernier = 0.000434347
Gmin = 3.81005e-09
vernier = 0.000579129
vernier = 0.000772172
Gmin = 3.80476e-09
vernier = 0.00102956
Gmin = 3.79621e-09
vernier = 0.00137275
vernier = 0.000686375
vernier = 0.000915166
Gmin = 3.79024e-09
vernier = 0.00122022
vernier = 0.000610111
Gmin = 3.78446e-09
vernier = 0.000813481
vernier = 0.00108464
vernier = 0.00054232
Gmin = 3.77876e-09
vernier = 0.000723094
Gmin = 3.77262e-09
vernier = 0.000964125
vernier = 0.0012855
vernier = 0.00064275
Gmin = 3.76596e-09
vernier = 0.000856999
vernier = 0.0004285
Gmin = 3.76172e-09
vernier = 0.000571333
vernier = 0.000761777
Gmin = 3.75595e-09
vernier = 0.0010157
vernier = 0.00135427
Gmin = 3.74682e-09
vernier = 0.000677135
vernier = 0.000902846
Gmin = 3.74154e-09
vernier = 0.00120379
vernier = 0.000601897
vernier = 0.000802529
Gmin = 3.73629e-09
vernier = 0.00107004
vernier = 0.000535019
Gmin = 3.73105e-09
vernier = 0.000713359
vernier = 0.000951145
Gmin = 3.72429e-09
vernier = 0.00126819
vernier = 0.000634097
Gmin = 3.71839e-09
vernier = 0.000845462
vernier = 0.000422731
vernier = 0.000563641
Gmin = 3.71453e-09
vernier = 0.000751521
Gmin = 3.70843e-09
vernier = 0.00100203
vernier = 0.00133604
vernier = 0.000668019
Gmin = 3.70155e-09
vernier = 0.000890691
Gmin = 3.69414e-09
vernier = 0.00118759
vernier = 0.000593794
vernier = 0.000791725
Gmin = 3.68921e-09
vernier = 0.00105563
vernier = 0.000527817
Gmin = 3.68458e-09
vernier = 0.000703755
vernier = 0.00093834
Gmin = 3.67724e-09
vernier = 0.00125112
vernier = 0.00062556
vernier = 0.00083408
Gmin = 3.67188e-09
vernier = 0.00041704
vernier = 0.000556053
Gmin = 3.66844e-09
vernier = 0.000741404
vernier = 0.000988538
Gmin = 3.66193e-09
vernier = 0.00131805
vernier = 0.000659025
Gmin = 3.6556e-09
vernier = 0.0008787
vernier = 0.0011716
vernier = 0.0005858
Gmin = 3.64958e-09
vernier = 0.000781066
Gmin = 3.64335e-09
vernier = 0.00104142
vernier = 0.000520711
vernier = 0.000694281
Gmin = 3.63901e-09
vernier = 0.000925708
Gmin = 3.63144e-09
vernier = 0.00123428
vernier = 0.000617138
vernier = 0.000822851
vernier = 0.000411425
Gmin = 3.62789e-09
vernier = 0.000548567
Gmin = 3.62354e-09
vernier = 0.000731423
vernier = 0.00097523
Gmin = 3.61643e-09
vernier = 0.00130031
vernier = 0.000650153
Gmin = 3.61085e-09
vernier = 0.000866871
vernier = 0.00115583
vernier = 0.000577914
Gmin = 3.60511e-09
vernier = 0.000770551
vernier = 0.0010274
Gmin = 3.59846e-09
vernier = 0.000513701
vernier = 0.000684934
Gmin = 3.59461e-09
vernier = 0.000913245
vernier = 0.00121766
vernier = 0.00060883
Gmin = 3.58847e-09
vernier = 0.000811773
vernier = 0.000405887
Gmin = 3.58428e-09
vernier = 0.000541182
vernier = 0.000721576
Gmin = 3.57964e-09
vernier = 0.000962101
Gmin = 3.57211e-09
vernier = 0.0012828
vernier = 0.0006414
vernier = 0.0008552
Gmin = 3.56687e-09
vernier = 0.00114027
vernier = 0.000570133
Gmin = 3.56179e-09
vernier = 0.000760178
vernier = 0.00101357
vernier = 0.000506785
Gmin = 3.55677e-09
vernier = 0.000675713
Gmin = 3.55137e-09
vernier = 0.000900951
vernier = 0.00120127
vernier = 0.000600634
Gmin = 3.54551e-09
vernier = 0.000800845
vernier = 0.000400422
Gmin = 3.54178e-09
vernier = 0.000533896
vernier = 0.000711861
Gmin = 3.5367e-09
vernier = 0.000949148
vernier = 0.00126553
Gmin = 3.52867e-09
vernier = 0.000632765
vernier = 0.000843687
Gmin = 3.52402e-09
vernier = 0.00112492
vernier = 0.000562458
vernier = 0.000749944
Gmin = 3.5194e-09
vernier = 0.000999925
vernier = 0.000499962
Gmin = 3.51479e-09
vernier = 0.000666616
vernier = 0.000888821
Gmin = 3.50884e-09
vernier = 0.00118509
vernier = 0.000592547
Gmin = 3.50364e-09
vernier = 0.000790063
vernier = 0.000592547
vernier = 0.000790063
Gmin = 3.49915e-09
vernier = 0.000592547
vernier = 0.000790063
vernier = 0.000592547
Gmin = 3.49587e-09
vernier = 0.000790063
vernier = 0.000592547
Gmin = 3.49155e-09
vernier = 0.000790062
vernier = 0.000592547
Gmin = 3.48725e-09
vernier = 0.000790062
vernier = 0.000592547
vernier = 0.000790062
Gmin = 3.48277e-09
vernier = 0.000592546
vernier = 0.000790062
vernier = 0.000592546
Gmin = 3.47951e-09
vernier = 0.000790062
vernier = 0.000592546
Gmin = 3.47522e-09
vernier = 0.000790061
vernier = 0.000592546
Gmin = 3.47093e-09
vernier = 0.000790061
vernier = 0.000592546
vernier = 0.000790061
Gmin = 3.46648e-09
vernier = 0.000592546
vernier = 0.000790061
vernier = 0.000592546
Gmin = 3.46322e-09
vernier = 0.000790061
vernier = 0.000592545
Gmin = 3.45895e-09
vernier = 0.00079006
vernier = 0.000592545
Gmin = 3.45469e-09
vernier = 0.00079006
vernier = 0.000592545
vernier = 0.00079006
Gmin = 3.45025e-09
vernier = 0.000592545
vernier = 0.00079006
vernier = 0.000592545
Gmin = 3.44702e-09
vernier = 0.00079006
vernier = 0.000592545
Gmin = 3.44277e-09
vernier = 0.000790059
vernier = 0.000592545
Gmin = 3.43852e-09
vernier = 0.000790059
vernier = 0.000592544
vernier = 0.000790059
Gmin = 3.43411e-09
vernier = 0.000592544
vernier = 0.000790059
vernier = 0.000592544
Gmin = 3.43089e-09
vernier = 0.000790059
vernier = 0.000592544
Gmin = 3.42665e-09
vernier = 0.000790058
vernier = 0.000592544
Gmin = 3.42243e-09
vernier = 0.000790058
vernier = 0.000592544
vernier = 0.000790058
Gmin = 3.41804e-09
vernier = 0.000592543
vernier = 0.000790058
vernier = 0.000592543
Gmin = 3.41483e-09
vernier = 0.000790058
vernier = 0.000592543
Gmin = 3.41062e-09
vernier = 0.000790057
vernier = 0.000592543
Gmin = 3.40641e-09
vernier = 0.000790057
vernier = 0.000592543
vernier = 0.000790057
Gmin = 3.40204e-09
vernier = 0.000592543
vernier = 0.000790057
vernier = 0.000592543
Gmin = 3.39885e-09
vernier = 0.000790057
vernier = 0.000592542
Gmin = 3.39466e-09
vernier = 0.000790056
vernier = 0.000592542
Gmin = 3.39047e-09
vernier = 0.000790056
vernier = 0.000592542
vernier = 0.000790056
Gmin = 3.38612e-09
vernier = 0.000592542
vernier = 0.000790056
vernier = 0.000592542
Gmin = 3.38295e-09
vernier = 0.000790056
vernier = 0.000592542
Gmin = 3.37877e-09
vernier = 0.000790055
vernier = 0.000592542
Gmin = 3.37461e-09
vernier = 0.000790055
vernier = 0.000592541
vernier = 0.000790055
Gmin = 3.37028e-09
vernier = 0.000592541
vernier = 0.000790055
vernier = 0.000592541
Gmin = 3.36712e-09
vernier = 0.000790055
vernier = 0.000592541
Gmin = 3.36296e-09
vernier = 0.000790054
vernier = 0.000592541
Gmin = 3.35881e-09
vernier = 0.000790054
vernier = 0.000592541
vernier = 0.000790054
Gmin = 3.3545e-09
vernier = 0.000592541
vernier = 0.000790054
vernier = 0.00059254
Gmin = 3.35136e-09
vernier = 0.000790054
vernier = 0.00059254
Gmin = 3.34722e-09
vernier = 0.000790053
vernier = 0.00059254
Gmin = 3.3431e-09
vernier = 0.000790053
vernier = 0.00059254
vernier = 0.000790053
Gmin = 3.33881e-09
vernier = 0.00059254
vernier = 0.000790053
vernier = 0.00059254
Gmin = 3.33568e-09
vernier = 0.000790053
vernier = 0.000592539
Gmin = 3.33173e-09
vernier = 0.000790052
vernier = 0.000592539
vernier = 0.000790052
Gmin = 3.32762e-09
vernier = 0.000592539
vernier = 0.000790052
vernier = 0.000592539
Gmin = 3.32482e-09
vernier = 0.000790052
vernier = 0.000592539
Gmin = 3.32089e-09
vernier = 0.000790052
vernier = 0.000592539
vernier = 0.000790051
vernier = 0.000592539
Gmin = 3.31794e-09
vernier = 0.000790051
vernier = 0.000592538
Gmin = 3.31401e-09
vernier = 0.000790051
vernier = 0.000592538
vernier = 0.000790051
vernier = 0.000592538
Gmin = 3.31106e-09
vernier = 0.000790051
vernier = 0.000592538
Gmin = 3.30714e-09
vernier = 0.00079005
vernier = 0.000592538
vernier = 0.00079005
Gmin = 3.30306e-09
vernier = 0.000592538
vernier = 0.00079005
vernier = 0.000592538
Gmin = 3.30029e-09
vernier = 0.00079005
vernier = 0.0010534
Gmin = 3.29405e-09
vernier = 0.0005267
vernier = 0.000702266
Gmin = 3.29044e-09
vernier = 0.000936355
vernier = 0.000468177
vernier = 0.000624236
Gmin = 3.28685e-09
vernier = 0.000832315
Gmin = 3.28087e-09
vernier = 0.00110975
vernier = 0.000554876
vernier = 0.000739835
Gmin = 3.2767e-09
vernier = 0.000554876
vernier = 0.000739835
vernier = 0.000554876
Gmin = 3.27397e-09
vernier = 0.000739835
vernier = 0.000554876
Gmin = 3.27019e-09
vernier = 0.000739835
vernier = 0.000554876
Gmin = 3.26641e-09
vernier = 0.000739834
vernier = 0.000554876
vernier = 0.000739834
Gmin = 3.26234e-09
vernier = 0.000554876
vernier = 0.000739834
vernier = 0.000554875
Gmin = 3.25962e-09
vernier = 0.000739834
vernier = 0.000554875
Gmin = 3.25586e-09
vernier = 0.000739834
vernier = 0.000554875
Gmin = 3.2521e-09
vernier = 0.000739833
vernier = 0.000554875
vernier = 0.000739833
Gmin = 3.24804e-09
vernier = 0.000554875
vernier = 0.000739833
vernier = 0.000554875
Gmin = 3.24534e-09
vernier = 0.000739833
vernier = 0.000554875
Gmin = 3.24159e-09
vernier = 0.000739833
vernier = 0.000554874
Gmin = 3.23784e-09
vernier = 0.000739832
vernier = 0.000554874
vernier = 0.000739832
Gmin = 3.2338e-09
vernier = 0.000554874
vernier = 0.000739832
vernier = 0.000554874
Gmin = 3.23111e-09
vernier = 0.000739832
vernier = 0.000554874
Gmin = 3.22738e-09
vernier = 0.000739832
vernier = 0.000554874
Gmin = 3.22365e-09
vernier = 0.000739832
vernier = 0.000554874
vernier = 0.000739831
Gmin = 3.21963e-09
vernier = 0.000554874
vernier = 0.000739831
vernier = 0.000554873
Gmin = 3.21695e-09
vernier = 0.000739831
vernier = 0.000554873
Gmin = 3.21324e-09
vernier = 0.000739831
vernier = 0.000554873
Gmin = 3.20952e-09
vernier = 0.000739831
vernier = 0.000554873
vernier = 0.00073983
Gmin = 3.20552e-09
vernier = 0.000554873
vernier = 0.00073983
vernier = 0.000554873
Gmin = 3.20285e-09
vernier = 0.00073983
vernier = 0.000554873
Gmin = 3.19915e-09
vernier = 0.00073983
vernier = 0.000554872
Gmin = 3.19546e-09
vernier = 0.00073983
vernier = 0.000554872
vernier = 0.00073983
Gmin = 3.19147e-09
vernier = 0.000554872
vernier = 0.000739829
vernier = 0.000554872
Gmin = 3.18882e-09
vernier = 0.000739829
vernier = 0.000554872
Gmin = 3.18513e-09
vernier = 0.000739829
vernier = 0.000554872
Gmin = 3.18145e-09
vernier = 0.000739829
vernier = 0.000554872
vernier = 0.000739829
Gmin = 3.17748e-09
vernier = 0.000554871
vernier = 0.000739828
vernier = 0.000554871
Gmin = 3.17484e-09
vernier = 0.000739828
vernier = 0.000554871
Gmin = 3.17117e-09
vernier = 0.000739828
vernier = 0.000554871
Gmin = 3.16751e-09
vernier = 0.000739828
vernier = 0.000554871
vernier = 0.000739828
Gmin = 3.16356e-09
vernier = 0.000554871
vernier = 0.000739827
vernier = 0.000554871
Gmin = 3.16092e-09
vernier = 0.000739827
vernier = 0.00055487
Gmin = 3.15727e-09
vernier = 0.000739827
vernier = 0.00055487
Gmin = 3.15363e-09
vernier = 0.000739827
vernier = 0.00055487
vernier = 0.000739827
Gmin = 3.14969e-09
vernier = 0.00055487
vernier = 0.000739827
vernier = 0.00055487
Gmin = 3.14707e-09
vernier = 0.000739826
vernier = 0.00055487
Gmin = 3.14344e-09
vernier = 0.000739826
vernier = 0.00055487
Gmin = 3.1398e-09
vernier = 0.000739826
vernier = 0.00055487
vernier = 0.000739826
vernier = 0.000554869
Gmin = 3.13705e-09
vernier = 0.000739826
vernier = 0.000554869
Gmin = 3.13357e-09
vernier = 0.000739825
vernier = 0.000554869
vernier = 0.000739825
Gmin = 3.12995e-09
vernier = 0.000554869
vernier = 0.000739825
vernier = 0.000554869
Gmin = 3.12749e-09
vernier = 0.000739825
vernier = 0.000554869
Gmin = 3.12402e-09
vernier = 0.000739825
vernier = 0.000554869
vernier = 0.000739825
vernier = 0.000554868
Gmin = 3.12142e-09
vernier = 0.000739824
vernier = 0.000554868
Gmin = 3.11796e-09
vernier = 0.000739824
vernier = 0.000554868
vernier = 0.000739824
vernier = 0.000554868
Gmin = 3.11537e-09
vernier = 0.000739824
vernier = 0.000554868
Gmin = 3.11191e-09
vernier = 0.000739824
vernier = 0.000554868
vernier = 0.000739823
Gmin = 3.10832e-09
vernier = 0.000554868
vernier = 0.000739823
vernier = 0.000554867
Gmin = 3.10587e-09
vernier = 0.000739823
vernier = 0.000554867
Gmin = 3.10243e-09
vernier = 0.000739823
vernier = 0.000554867
vernier = 0.000739823
vernier = 0.000554867
Gmin = 3.09985e-09
vernier = 0.000739822
vernier = 0.000554867
Gmin = 3.09641e-09
vernier = 0.000739822
vernier = 0.000554867
vernier = 0.000739822
vernier = 0.000554867
Gmin = 3.09383e-09
vernier = 0.000739822
vernier = 0.000554866
Gmin = 3.0904e-09
vernier = 0.000739822
vernier = 0.000554866
vernier = 0.000739822
Gmin = 3.08683e-09
vernier = 0.000554866
vernier = 0.000739821
vernier = 0.000554866
Gmin = 3.08441e-09
vernier = 0.000739821
vernier = 0.000554866
Gmin = 3.08099e-09
vernier = 0.000739821
vernier = 0.000554866
vernier = 0.000739821
vernier = 0.000554866
Gmin = 3.07842e-09
vernier = 0.000739821
vernier = 0.000554865
Gmin = 3.07501e-09
vernier = 0.00073982
vernier = 0.000554865
vernier = 0.00073982
vernier = 0.000554865
Gmin = 3.07245e-09
vernier = 0.00073982
Gmin = 3.06748e-09
vernier = 0.000986427
vernier = 0.000493213
vernier = 0.000657618
Gmin = 3.06402e-09
vernier = 0.000876823
vernier = 0.000438412
Gmin = 3.06066e-09
vernier = 0.000584549
vernier = 0.000779398
Gmin = 3.05586e-09
vernier = 0.0010392
vernier = 0.000519599
Gmin = 3.05209e-09
vernier = 0.000692798
vernier = 0.000519598
vernier = 0.000692798
Gmin = 3.04852e-09
vernier = 0.000519598
vernier = 0.000692798
vernier = 0.000519598
Gmin = 3.04615e-09
vernier = 0.000692797
vernier = 0.000519598
Gmin = 3.04285e-09
vernier = 0.000692797
vernier = 0.000519598
Gmin = 3.03956e-09
vernier = 0.000692797
vernier = 0.000519598
vernier = 0.000692797
Gmin = 3.03601e-09
vernier = 0.000519598
vernier = 0.000692797
vernier = 0.000519597
Gmin = 3.03365e-09
vernier = 0.000692796
vernier = 0.000519597
Gmin = 3.03036e-09
vernier = 0.000692796
vernier = 0.000519597
Gmin = 3.02709e-09
vernier = 0.000692796
vernier = 0.000519597
vernier = 0.000692796
Gmin = 3.02355e-09
vernier = 0.000519597
vernier = 0.000692796
vernier = 0.000519597
Gmin = 3.02119e-09
vernier = 0.000692796
vernier = 0.000519597
Gmin = 3.01793e-09
vernier = 0.000692795
vernier = 0.000519597
Gmin = 3.01466e-09
vernier = 0.000692795
vernier = 0.000519596
vernier = 0.000692795
Gmin = 3.01114e-09
vernier = 0.000519596
vernier = 0.000692795
vernier = 0.000519596
Gmin = 3.00866e-09
vernier = 0.000692795
vernier = 0.000519596
Gmin = 3.00541e-09
vernier = 0.000692795
vernier = 0.000519596
Gmin = 3.00216e-09
vernier = 0.000692794
vernier = 0.000519596
vernier = 0.000692794
Gmin = 2.99878e-09
vernier = 0.000519596
vernier = 0.000692794
vernier = 0.000519596
Gmin = 2.99631e-09
vernier = 0.000692794
vernier = 0.000519595
Gmin = 2.99307e-09
vernier = 0.000692794
vernier = 0.000519595
Gmin = 2.98983e-09
vernier = 0.000692794
vernier = 0.000519595
vernier = 0.000692793
Gmin = 2.98647e-09
vernier = 0.000519595
vernier = 0.000692793
vernier = 0.000519595
Gmin = 2.98401e-09
vernier = 0.000692793
vernier = 0.000519595
Gmin = 2.98079e-09
vernier = 0.000692793
vernier = 0.000519595
Gmin = 2.97756e-09
vernier = 0.000692793
vernier = 0.000519594
vernier = 0.000692792
Gmin = 2.97421e-09
vernier = 0.000519594
vernier = 0.000692792
vernier = 0.000519594
Gmin = 2.97176e-09
vernier = 0.000692792
vernier = 0.000519594
Gmin = 2.96855e-09
vernier = 0.000692792
vernier = 0.000519594
Gmin = 2.96534e-09
vernier = 0.000692792
vernier = 0.000519594
vernier = 0.000692792
Gmin = 2.962e-09
vernier = 0.000519594
vernier = 0.000692791
vernier = 0.000519594
Gmin = 2.95957e-09
vernier = 0.000692791
vernier = 0.000519593
Gmin = 2.95636e-09
vernier = 0.000692791
vernier = 0.000519593
Gmin = 2.95329e-09
vernier = 0.000692791
vernier = 0.000519593
vernier = 0.000692791
vernier = 0.000519593
Gmin = 2.95099e-09
vernier = 0.000692791
vernier = 0.000519593
Gmin = 2.94793e-09
vernier = 0.00069279
vernier = 0.000519593
vernier = 0.00069279
vernier = 0.000519593
Gmin = 2.94563e-09
vernier = 0.00069279
vernier = 0.000519593
Gmin = 2.94257e-09
vernier = 0.00069279
vernier = 0.000519592
vernier = 0.00069279
Gmin = 2.93939e-09
vernier = 0.000519592
vernier = 0.00069279
vernier = 0.000519592
Gmin = 2.93723e-09
vernier = 0.000692789
vernier = 0.000519592
Gmin = 2.93418e-09
vernier = 0.000692789
vernier = 0.000519592
vernier = 0.000692789
vernier = 0.000519592
Gmin = 2.93189e-09
vernier = 0.000692789
vernier = 0.000519592
Gmin = 2.92885e-09
vernier = 0.000692789
vernier = 0.000519592
vernier = 0.000692788
vernier = 0.000519591
Gmin = 2.92656e-09
vernier = 0.000692788
vernier = 0.000519591
Gmin = 2.92352e-09
vernier = 0.000692788
vernier = 0.000519591
vernier = 0.000692788
Gmin = 2.92036e-09
vernier = 0.000519591
vernier = 0.000692788
vernier = 0.000519591
Gmin = 2.91821e-09
vernier = 0.000692788
vernier = 0.000519591
Gmin = 2.91518e-09
vernier = 0.000692787
vernier = 0.000519591
vernier = 0.000692787
vernier = 0.00051959
Gmin = 2.91291e-09
vernier = 0.000692787
vernier = 0.00051959
Gmin = 2.90989e-09
vernier = 0.000692787
vernier = 0.00051959
vernier = 0.000692787
vernier = 0.00051959
Gmin = 2.90762e-09
vernier = 0.000692787
vernier = 0.00051959
Gmin = 2.9046e-09
vernier = 0.000692786
vernier = 0.00051959
vernier = 0.000692786
Gmin = 2.90146e-09
vernier = 0.00051959
vernier = 0.000692786
vernier = 0.00051959
Gmin = 2.89932e-09
vernier = 0.000692786
vernier = 0.000519589
Gmin = 2.89631e-09
vernier = 0.000692786
vernier = 0.000519589
vernier = 0.000692786
vernier = 0.000519589
Gmin = 2.89405e-09
vernier = 0.000692785
vernier = 0.000519589
Gmin = 2.89105e-09
vernier = 0.000692785
vernier = 0.000519589
vernier = 0.000692785
vernier = 0.000519589
Gmin = 2.8888e-09
vernier = 0.000692785
vernier = 0.000519589
Gmin = 2.8858e-09
vernier = 0.000692785
vernier = 0.000519589
vernier = 0.000692785
Gmin = 2.88267e-09
vernier = 0.000519588
vernier = 0.000692784
vernier = 0.000519588
Gmin = 2.88055e-09
vernier = 0.000692784
vernier = 0.000519588
Gmin = 2.87756e-09
vernier = 0.000692784
vernier = 0.000519588
vernier = 0.000692784
vernier = 0.000519588
Gmin = 2.87532e-09
vernier = 0.000692784
vernier = 0.000519588
Gmin = 2.87233e-09
vernier = 0.000692783
vernier = 0.000519588
vernier = 0.000692783
vernier = 0.000519587
Gmin = 2.8701e-09
vernier = 0.000692783
vernier = 0.000519587
Gmin = 2.86712e-09
vernier = 0.000692783
vernier = 0.000519587
vernier = 0.000692783
Gmin = 2.86401e-09
vernier = 0.000519587
vernier = 0.000692783
vernier = 0.000519587
Gmin = 2.86191e-09
vernier = 0.000692782
vernier = 0.000519587
Gmin = 2.85893e-09
vernier = 0.000692782
vernier = 0.000519587
vernier = 0.000692782
vernier = 0.000519587
Gmin = 2.85671e-09
vernier = 0.000692782
Gmin = 2.85226e-09
vernier = 0.000923709
vernier = 0.000461854
vernier = 0.000615806
Gmin = 2.8493e-09
vernier = 0.000461854
vernier = 0.000615806
vernier = 0.000461854
Gmin = 2.84721e-09
vernier = 0.000615806
vernier = 0.000461854
Gmin = 2.84437e-09
vernier = 0.000615805
vernier = 0.000461854
Gmin = 2.84152e-09
vernier = 0.000615805
vernier = 0.000461854
Gmin = 2.83868e-09
vernier = 0.000615805
vernier = 0.000461854
Gmin = 2.83584e-09
vernier = 0.000615805
vernier = 0.000461854
Gmin = 2.833e-09
vernier = 0.000615805
vernier = 0.000461854
vernier = 0.000615805
Gmin = 2.83006e-09
vernier = 0.000461853
vernier = 0.000615804
Gmin = 2.82712e-09
vernier = 0.000461853
vernier = 0.000615804
Gmin = 2.82419e-09
vernier = 0.000461853
vernier = 0.000615804
vernier = 0.000461853
Gmin = 2.82212e-09
vernier = 0.000615804
vernier = 0.000461853
Gmin = 2.8193e-09
vernier = 0.000615804
vernier = 0.000461853
Gmin = 2.81648e-09
vernier = 0.000615804
vernier = 0.000461853
Gmin = 2.81366e-09
vernier = 0.000615804
vernier = 0.000461853
Gmin = 2.81085e-09
vernier = 0.000615803
vernier = 0.000461853
vernier = 0.000615803
Gmin = 2.80804e-09
vernier = 0.000461852
vernier = 0.000615803
vernier = 0.000461852
Gmin = 2.80599e-09
vernier = 0.000615803
vernier = 0.000461852
Gmin = 2.80329e-09
vernier = 0.000615803
vernier = 0.000461852
Gmin = 2.80059e-09
vernier = 0.000615803
vernier = 0.000461852
vernier = 0.000615802
Gmin = 2.79779e-09
vernier = 0.000461852
vernier = 0.000615802
vernier = 0.000461852
Gmin = 2.79575e-09
vernier = 0.000615802
vernier = 0.000461852
Gmin = 2.79306e-09
vernier = 0.000615802
vernier = 0.000461851
Gmin = 2.79037e-09
vernier = 0.000615802
vernier = 0.000461851
vernier = 0.000615802
Gmin = 2.78758e-09
vernier = 0.000461851
vernier = 0.000615802
vernier = 0.000461851
Gmin = 2.78554e-09
vernier = 0.000615801
vernier = 0.000461851
Gmin = 2.78286e-09
vernier = 0.000615801
vernier = 0.000461851
Gmin = 2.78019e-09
vernier = 0.000615801
vernier = 0.000461851
vernier = 0.000615801
Gmin = 2.77741e-09
vernier = 0.000461851
vernier = 0.000615801
vernier = 0.000461851
Gmin = 2.77538e-09
vernier = 0.000615801
vernier = 0.00046185
Gmin = 2.77271e-09
vernier = 0.0006158
vernier = 0.00046185
Gmin = 2.77004e-09
vernier = 0.0006158
vernier = 0.00046185
vernier = 0.0006158
Gmin = 2.76727e-09
vernier = 0.00046185
vernier = 0.0006158
vernier = 0.00046185
Gmin = 2.76525e-09
vernier = 0.0006158
vernier = 0.00046185
Gmin = 2.76259e-09
vernier = 0.0006158
vernier = 0.00046185
Gmin = 2.75993e-09
vernier = 0.0006158
vernier = 0.00046185
vernier = 0.000615799
Gmin = 2.75717e-09
vernier = 0.00046185
vernier = 0.000615799
vernier = 0.000461849
Gmin = 2.75516e-09
vernier = 0.000615799
vernier = 0.000461849
Gmin = 2.75251e-09
vernier = 0.000615799
vernier = 0.000461849
Gmin = 2.74986e-09
vernier = 0.000615799
vernier = 0.000461849
vernier = 0.000615799
Gmin = 2.74711e-09
vernier = 0.000461849
vernier = 0.000615798
vernier = 0.000461849
Gmin = 2.7451e-09
vernier = 0.000615798
vernier = 0.000461849
Gmin = 2.74246e-09
vernier = 0.000615798
vernier = 0.000461849
Gmin = 2.73982e-09
vernier = 0.000615798
vernier = 0.000461848
vernier = 0.000615798
Gmin = 2.73708e-09
vernier = 0.000461848
vernier = 0.000615798
vernier = 0.000461848
Gmin = 2.73508e-09
vernier = 0.000615798
vernier = 0.000461848
Gmin = 2.73245e-09
vernier = 0.000615797
vernier = 0.000461848
Gmin = 2.72983e-09
vernier = 0.000615797
vernier = 0.000461848
vernier = 0.000615797
Gmin = 2.7271e-09
vernier = 0.000461848
vernier = 0.000615797
vernier = 0.000461848
Gmin = 2.7251e-09
vernier = 0.000615797
vernier = 0.000461848
Gmin = 2.72248e-09
vernier = 0.000615797
vernier = 0.000461847
Gmin = 2.71986e-09
vernier = 0.000615796
vernier = 0.000461847
vernier = 0.000615796
Gmin = 2.71714e-09
vernier = 0.000461847
vernier = 0.000615796
vernier = 0.000461847
Gmin = 2.71516e-09
vernier = 0.000615796
vernier = 0.000461847
Gmin = 2.71255e-09
vernier = 0.000615796
vernier = 0.000461847
Gmin = 2.70994e-09
vernier = 0.000615796
vernier = 0.000461847
vernier = 0.000615796
Gmin = 2.70723e-09
vernier = 0.000461847
vernier = 0.000615795
vernier = 0.000461847
Gmin = 2.70525e-09
vernier = 0.000615795
vernier = 0.000461846
Gmin = 2.70265e-09
vernier = 0.000615795
vernier = 0.000461846
Gmin = 2.70005e-09
vernier = 0.000615795
vernier = 0.000461846
vernier = 0.000615795
Gmin = 2.69735e-09
vernier = 0.000461846
vernier = 0.000615795
vernier = 0.000461846
Gmin = 2.69538e-09
vernier = 0.000615794
vernier = 0.000461846
Gmin = 2.69278e-09
vernier = 0.000615794
vernier = 0.000461846
Gmin = 2.6902e-09
vernier = 0.000615794
vernier = 0.000461846
vernier = 0.000615794
Gmin = 2.6875e-09
vernier = 0.000461845
vernier = 0.000615794
vernier = 0.000461845
Gmin = 2.68554e-09
vernier = 0.000615794
vernier = 0.000461845
Gmin = 2.68296e-09
vernier = 0.000615794
vernier = 0.000461845
Gmin = 2.68038e-09
vernier = 0.000615793
vernier = 0.000461845
vernier = 0.000615793
Gmin = 2.6777e-09
vernier = 0.000461845
vernier = 0.000615793
vernier = 0.000461845
Gmin = 2.67574e-09
vernier = 0.000615793
vernier = 0.000461845
Gmin = 2.67317e-09
vernier = 0.000615793
vernier = 0.000461845
Gmin = 2.6706e-09
vernier = 0.000615793
vernier = 0.000461844
vernier = 0.000615792
Gmin = 2.66792e-09
vernier = 0.000461844
vernier = 0.000615792
vernier = 0.000461844
Gmin = 2.66597e-09
vernier = 0.000615792
vernier = 0.000461844
Gmin = 2.66341e-09
vernier = 0.000615792
vernier = 0.000461844
Gmin = 2.66085e-09
vernier = 0.000615792
vernier = 0.000461844
vernier = 0.000615792
Gmin = 2.65819e-09
vernier = 0.000461844
vernier = 0.000615792
vernier = 0.000461844
Gmin = 2.65635e-09
vernier = 0.000615791
vernier = 0.000461844
Gmin = 2.6539e-09
vernier = 0.000615791
vernier = 0.000461843
vernier = 0.000615791
vernier = 0.000461843
Gmin = 2.65206e-09
vernier = 0.000615791
vernier = 0.000461843
Gmin = 2.64961e-09
vernier = 0.000615791
vernier = 0.000461843
vernier = 0.000615791
Gmin = 2.64706e-09
vernier = 0.000461843
vernier = 0.00061579
vernier = 0.000461843
Gmin = 2.64533e-09
vernier = 0.00061579
vernier = 0.000461843
Gmin = 2.64289e-09
vernier = 0.00061579
vernier = 0.000461843
vernier = 0.00061579
vernier = 0.000461842
Gmin = 2.64106e-09
vernier = 0.00061579
vernier = 0.000461842
Gmin = 2.63862e-09
vernier = 0.00061579
vernier = 0.000461842
vernier = 0.00061579
vernier = 0.000461842
Gmin = 2.63679e-09
vernier = 0.000615789
vernier = 0.000461842
Gmin = 2.63436e-09
vernier = 0.000615789
vernier = 0.000461842
vernier = 0.000615789
Gmin = 2.63182e-09
vernier = 0.000461842
vernier = 0.000615789
vernier = 0.000461842
Gmin = 2.6301e-09
vernier = 0.000615789
vernier = 0.000461842
Gmin = 2.62768e-09
vernier = 0.000615789
vernier = 0.000461841
vernier = 0.000615788
Gmin = 2.62495e-09
vernier = 0.000461841
vernier = 0.000615788
vernier = 0.000461841
Gmin = 2.62323e-09
vernier = 0.000615788
vernier = 0.000461841
Gmin = 2.62081e-09
vernier = 0.000615788
vernier = 0.000461841
vernier = 0.000615788
vernier = 0.000461841
Gmin = 2.61899e-09
vernier = 0.000615788
vernier = 0.000461841
Gmin = 2.61658e-09
vernier = 0.000615788
vernier = 0.000461841
vernier = 0.000615787
vernier = 0.000461841
Gmin = 2.61476e-09
vernier = 0.000615787
vernier = 0.00046184
Gmin = 2.61235e-09
vernier = 0.000615787
vernier = 0.00046184
vernier = 0.000615787
Gmin = 2.60984e-09
vernier = 0.00046184
vernier = 0.000615787
vernier = 0.00046184
Gmin = 2.60813e-09
vernier = 0.000615787
vernier = 0.00046184
Gmin = 2.60572e-09
vernier = 0.000615786
vernier = 0.00046184
vernier = 0.000615786
vernier = 0.00046184
Gmin = 2.60392e-09
vernier = 0.000615786
vernier = 0.00046184
Gmin = 2.60151e-09
vernier = 0.000615786
vernier = 0.000461839
vernier = 0.000615786
vernier = 0.000461839
Gmin = 2.59971e-09
vernier = 0.000615786
vernier = 0.000461839
Gmin = 2.59731e-09
vernier = 0.000615786
vernier = 0.000461839
vernier = 0.000615785
Gmin = 2.59481e-09
vernier = 0.000461839
vernier = 0.000615785
vernier = 0.000461839
Gmin = 2.59312e-09
vernier = 0.000615785
vernier = 0.000461839
Gmin = 2.59072e-09
vernier = 0.000615785
vernier = 0.000461839
vernier = 0.000615785
vernier = 0.000461839
Gmin = 2.58893e-09
vernier = 0.000615785
vernier = 0.000461838
Gmin = 2.58654e-09
vernier = 0.000615784
vernier = 0.000461838
vernier = 0.000615784
vernier = 0.000461838
Gmin = 2.58475e-09
vernier = 0.000615784
vernier = 0.000461838
Gmin = 2.58236e-09
vernier = 0.000615784
vernier = 0.000461838
vernier = 0.000615784
Gmin = 2.57988e-09
vernier = 0.000461838
vernier = 0.000615784
vernier = 0.000461838
Gmin = 2.57819e-09
vernier = 0.000615784
vernier = 0.000461838
Gmin = 2.57581e-09
vernier = 0.000615783
vernier = 0.000461838
vernier = 0.000615783
vernier = 0.000461837
Gmin = 2.57403e-09
vernier = 0.000615783
vernier = 0.000461837
Gmin = 2.57165e-09
vernier = 0.000615783
vernier = 0.000461837
vernier = 0.000615783
vernier = 0.000461837
Gmin = 2.56987e-09
vernier = 0.000615783
vernier = 0.000461837
Gmin = 2.5675e-09
vernier = 0.000615782
vernier = 0.000461837
vernier = 0.000615782
Gmin = 2.56503e-09
vernier = 0.000461837
vernier = 0.000615782
vernier = 0.000461837
Gmin = 2.56335e-09
vernier = 0.000615782
vernier = 0.000461836
Gmin = 2.56099e-09
vernier = 0.000615782
vernier = 0.000461836
vernier = 0.000615782
vernier = 0.000461836
Gmin = 2.55921e-09
vernier = 0.000615782
vernier = 0.000461836
Gmin = 2.55685e-09
vernier = 0.000615781
vernier = 0.000461836
vernier = 0.000615781
vernier = 0.000461836
Gmin = 2.55508e-09
vernier = 0.000615781
vernier = 0.000461836
Gmin = 2.55272e-09
vernier = 0.000615781
vernier = 0.000461836
vernier = 0.000615781
Gmin = 2.55026e-09
vernier = 0.000461836
vernier = 0.000615781
vernier = 0.000461835
Gmin = 2.5486e-09
vernier = 0.00061578
vernier = 0.000461835
Gmin = 2.54624e-09
vernier = 0.00061578
vernier = 0.000461835
vernier = 0.00061578
vernier = 0.000461835
Gmin = 2.54448e-09
vernier = 0.00061578
vernier = 0.000461835
Gmin = 2.54213e-09
vernier = 0.00061578
vernier = 0.000461835
vernier = 0.00061578
vernier = 0.000461835
Gmin = 2.54037e-09
vernier = 0.00061578
vernier = 0.000461835
Gmin = 2.53803e-09
vernier = 0.000615779
vernier = 0.000461835
vernier = 0.000615779
Gmin = 2.53559e-09
vernier = 0.000461834
vernier = 0.000615779
vernier = 0.000461834
Gmin = 2.53393e-09
vernier = 0.000615779
vernier = 0.000461834
Gmin = 2.53159e-09
vernier = 0.000615779
vernier = 0.000461834
vernier = 0.000615779
vernier = 0.000461834
Gmin = 2.52984e-09
vernier = 0.000615778
vernier = 0.000461834
Gmin = 2.5275e-09
vernier = 0.000615778
vernier = 0.000461834
vernier = 0.000615778
vernier = 0.000461834
Gmin = 2.52575e-09
vernier = 0.000615778
vernier = 0.000461833
Gmin = 2.52342e-09
vernier = 0.000615778
vernier = 0.000461833
vernier = 0.000615778
Gmin = 2.52099e-09
vernier = 0.000461833
vernier = 0.000615778
vernier = 0.000461833
Gmin = 2.51934e-09
vernier = 0.000615777
vernier = 0.000461833
Gmin = 2.51702e-09
vernier = 0.000615777
vernier = 0.000461833
vernier = 0.000615777
vernier = 0.000461833
Gmin = 2.51527e-09
vernier = 0.000615777
vernier = 0.000461833
Gmin = 2.51295e-09
vernier = 0.000615777
vernier = 0.000461833
vernier = 0.000615777
vernier = 0.000461832
Gmin = 2.51121e-09
vernier = 0.000615776
vernier = 0.000461832
Gmin = 2.50889e-09
vernier = 0.000615776
vernier = 0.000461832
vernier = 0.000615776
Gmin = 2.50648e-09
vernier = 0.000461832
vernier = 0.000615776
Gmin = 2.50388e-09
vernier = 0.000821034
vernier = 0.000410517
vernier = 0.000547356
Gmin = 2.50148e-09
vernier = 0.000410517
vernier = 0.000547356
vernier = 0.000410517
Gmin = 2.49985e-09
vernier = 0.000547356
vernier = 0.000410517
Gmin = 2.49772e-09
vernier = 0.000547356
vernier = 0.000410517
Gmin = 2.49558e-09
vernier = 0.000547356
vernier = 0.000410517
vernier = 0.000547355
Gmin = 2.49336e-09
vernier = 0.000410517
vernier = 0.000547355
vernier = 0.000410516
Gmin = 2.49174e-09
vernier = 0.000547355
vernier = 0.000410516
Gmin = 2.48961e-09
vernier = 0.000547355
vernier = 0.000410516
Gmin = 2.48749e-09
vernier = 0.000547355
vernier = 0.000410516
vernier = 0.000547355
Gmin = 2.48527e-09
vernier = 0.000410516
vernier = 0.000547355
vernier = 0.000410516
Gmin = 2.48366e-09
vernier = 0.000547355
vernier = 0.000410516
Gmin = 2.48154e-09
vernier = 0.000547354
vernier = 0.000410516
Gmin = 2.47942e-09
vernier = 0.000547354
vernier = 0.000410516
vernier = 0.000547354
Gmin = 2.47721e-09
vernier = 0.000410516
vernier = 0.000547354
vernier = 0.000410515
Gmin = 2.4756e-09
vernier = 0.000547354
vernier = 0.000410515
Gmin = 2.47349e-09
vernier = 0.000547354
vernier = 0.000410515
Gmin = 2.47137e-09
vernier = 0.000547354
vernier = 0.000410515
vernier = 0.000547353
Gmin = 2.46917e-09
vernier = 0.000410515
vernier = 0.000547353
vernier = 0.000410515
Gmin = 2.46757e-09
vernier = 0.000547353
vernier = 0.000410515
Gmin = 2.46546e-09
vernier = 0.000547353
vernier = 0.000410515
Gmin = 2.46335e-09
vernier = 0.000547353
vernier = 0.000410515
vernier = 0.000547353
Gmin = 2.46116e-09
vernier = 0.000410515
vernier = 0.000547353
vernier = 0.000410514
Gmin = 2.45956e-09
vernier = 0.000547352
vernier = 0.000410514
Gmin = 2.45746e-09
vernier = 0.000547352
vernier = 0.000410514
Gmin = 2.45536e-09
vernier = 0.000547352
vernier = 0.000410514
vernier = 0.000547352
Gmin = 2.45318e-09
vernier = 0.000410514
vernier = 0.000547352
vernier = 0.000410514
Gmin = 2.45158e-09
vernier = 0.000547352
vernier = 0.000410514
Gmin = 2.44949e-09
vernier = 0.000547352
vernier = 0.000410514
Gmin = 2.44739e-09
vernier = 0.000547351
vernier = 0.000410514
vernier = 0.000547351
Gmin = 2.44522e-09
vernier = 0.000410514
vernier = 0.000547351
vernier = 0.000410513
Gmin = 2.44363e-09
vernier = 0.000547351
vernier = 0.000410513
Gmin = 2.44154e-09
vernier = 0.000547351
vernier = 0.000410513
Gmin = 2.43945e-09
vernier = 0.000547351
vernier = 0.000410513
vernier = 0.000547351
Gmin = 2.43729e-09
vernier = 0.000410513
vernier = 0.000547351
vernier = 0.000410513
Gmin = 2.4357e-09
vernier = 0.00054735
vernier = 0.000410513
Gmin = 2.43362e-09
vernier = 0.00054735
vernier = 0.000410513
Gmin = 2.43154e-09
vernier = 0.00054735
vernier = 0.000410513
vernier = 0.00054735
Gmin = 2.42938e-09
vernier = 0.000410512
vernier = 0.00054735
vernier = 0.000410512
Gmin = 2.4278e-09
vernier = 0.00054735
vernier = 0.000410512
Gmin = 2.42572e-09
vernier = 0.00054735
vernier = 0.000410512
Gmin = 2.42365e-09
vernier = 0.000547349
vernier = 0.000410512
vernier = 0.000547349
Gmin = 2.4215e-09
vernier = 0.000410512
vernier = 0.000547349
vernier = 0.000410512
Gmin = 2.41992e-09
vernier = 0.000547349
vernier = 0.000410512
Gmin = 2.41785e-09
vernier = 0.000547349
vernier = 0.000410512
Gmin = 2.41579e-09
vernier = 0.000547349
vernier = 0.000410512
vernier = 0.000547349
Gmin = 2.41364e-09
vernier = 0.000410511
vernier = 0.000547348
vernier = 0.000410511
Gmin = 2.41207e-09
vernier = 0.000547348
vernier = 0.000410511
Gmin = 2.41001e-09
vernier = 0.000547348
vernier = 0.000410511
Gmin = 2.40795e-09
vernier = 0.000547348
vernier = 0.000410511
vernier = 0.000547348
Gmin = 2.40581e-09
vernier = 0.000410511
vernier = 0.000547348
vernier = 0.000410511
Gmin = 2.40425e-09
vernier = 0.000547348
vernier = 0.000410511
Gmin = 2.40219e-09
vernier = 0.000547348
vernier = 0.000410511
Gmin = 2.40014e-09
vernier = 0.000547347
vernier = 0.000410511
vernier = 0.000547347
Gmin = 2.398e-09
vernier = 0.00041051
vernier = 0.000547347
vernier = 0.00041051
Gmin = 2.39644e-09
vernier = 0.000547347
vernier = 0.00041051
Gmin = 2.3944e-09
vernier = 0.000547347
vernier = 0.00041051
Gmin = 2.39235e-09
vernier = 0.000547347
vernier = 0.00041051
vernier = 0.000547347
vernier = 0.00041051
Gmin = 2.39088e-09
vernier = 0.000547346
vernier = 0.00041051
Gmin = 2.38891e-09
vernier = 0.000547346
vernier = 0.00041051
vernier = 0.000547346
Gmin = 2.38687e-09
vernier = 0.00041051
vernier = 0.000547346
vernier = 0.00041051
Gmin = 2.38549e-09
vernier = 0.000547346
vernier = 0.000410509
Gmin = 2.38353e-09
vernier = 0.000547346
vernier = 0.000410509
vernier = 0.000547346
vernier = 0.000410509
Gmin = 2.38206e-09
vernier = 0.000547345
vernier = 0.000410509
Gmin = 2.38011e-09
vernier = 0.000547345
vernier = 0.000410509
vernier = 0.000547345
vernier = 0.000410509
Gmin = 2.37864e-09
vernier = 0.000547345
vernier = 0.000410509
Gmin = 2.37669e-09
vernier = 0.000547345
vernier = 0.000410509
vernier = 0.000547345
Gmin = 2.37466e-09
vernier = 0.000410509
vernier = 0.000547345
vernier = 0.000410508
Gmin = 2.37328e-09
vernier = 0.000547345
vernier = 0.000410508
Gmin = 2.37133e-09
vernier = 0.000547344
vernier = 0.000410508
vernier = 0.000547344
vernier = 0.000410508
Gmin = 2.36987e-09
vernier = 0.000547344
vernier = 0.000410508
Gmin = 2.36792e-09
vernier = 0.000547344
vernier = 0.000410508
vernier = 0.000547344
vernier = 0.000410508
Gmin = 2.36647e-09
vernier = 0.000547344
vernier = 0.000410508
Gmin = 2.36452e-09
vernier = 0.000547344
vernier = 0.000410508
vernier = 0.000547343
Gmin = 2.3625e-09
vernier = 0.000410508
vernier = 0.000547343
vernier = 0.000410507
Gmin = 2.36113e-09
vernier = 0.000547343
vernier = 0.000410507
Gmin = 2.35919e-09
vernier = 0.000547343
vernier = 0.000410507
vernier = 0.000547343
vernier = 0.000410507
Gmin = 2.35774e-09
vernier = 0.000547343
vernier = 0.000410507
Gmin = 2.35581e-09
vernier = 0.000547343
vernier = 0.000410507
vernier = 0.000547342
vernier = 0.000410507
Gmin = 2.35436e-09
vernier = 0.000547342
vernier = 0.000410507
Gmin = 2.35234e-09
vernier = 0.000547342
vernier = 0.000410507
Gmin = 2.35041e-09
vernier = 0.000547342
vernier = 0.000410507
vernier = 0.000547342
vernier = 0.000410506
Gmin = 2.34897e-09
vernier = 0.000547342
vernier = 0.000410506
Gmin = 2.34704e-09
vernier = 0.000547342
vernier = 0.000410506
vernier = 0.000547342
vernier = 0.000410506
Gmin = 2.34559e-09
vernier = 0.000547341
vernier = 0.000410506
Gmin = 2.34367e-09
vernier = 0.000547341
vernier = 0.000410506
vernier = 0.000547341
Gmin = 2.34166e-09
vernier = 0.000410506
vernier = 0.000547341
vernier = 0.000410506
Gmin = 2.3403e-09
vernier = 0.000547341
vernier = 0.000410506
Gmin = 2.33822e-09
vernier = 0.000547341
vernier = 0.000410506
vernier = 0.000547341
Gmin = 2.33622e-09
vernier = 0.000410505
vernier = 0.00054734
vernier = 0.000410505
Gmin = 2.33487e-09
vernier = 0.00054734
vernier = 0.000410505
Gmin = 2.33295e-09
vernier = 0.00054734
vernier = 0.000410505
vernier = 0.00054734
vernier = 0.000410505
Gmin = 2.33151e-09
vernier = 0.00054734
vernier = 0.000410505
Gmin = 2.3296e-09
vernier = 0.00054734
vernier = 0.000410505
vernier = 0.00054734
vernier = 0.000410505
Gmin = 2.32817e-09
vernier = 0.000547339
vernier = 0.000410505
Gmin = 2.32626e-09
vernier = 0.000547339
vernier = 0.000410504
vernier = 0.000547339
Gmin = 2.32427e-09
vernier = 0.000410504
vernier = 0.000547339
vernier = 0.000410504
Gmin = 2.32292e-09
vernier = 0.000547339
vernier = 0.000410504
Gmin = 2.32101e-09
vernier = 0.000547339
vernier = 0.000410504
vernier = 0.000547339
vernier = 0.000410504
Gmin = 2.31958e-09
vernier = 0.000547338
vernier = 0.000410504
Gmin = 2.31768e-09
vernier = 0.000547338
vernier = 0.000410504
vernier = 0.000547338
vernier = 0.000410504
Gmin = 2.31625e-09
vernier = 0.000547338
vernier = 0.000410504
Gmin = 2.31435e-09
vernier = 0.000547338
vernier = 0.000410503
vernier = 0.000547338
Gmin = 2.31237e-09
vernier = 0.000410503
vernier = 0.000547338
vernier = 0.000410503
Gmin = 2.31103e-09
vernier = 0.000547338
vernier = 0.000410503
Gmin = 2.30913e-09
vernier = 0.000547337
vernier = 0.000410503
vernier = 0.000547337
vernier = 0.000410503
Gmin = 2.30771e-09
vernier = 0.000547337
vernier = 0.000410503
Gmin = 2.30582e-09
vernier = 0.000547337
vernier = 0.000410503
vernier = 0.000547337
vernier = 0.000410503
Gmin = 2.3044e-09
vernier = 0.000547337
vernier = 0.000410503
Gmin = 2.30251e-09
vernier = 0.000547337
vernier = 0.000410502
vernier = 0.000547336
Gmin = 2.30054e-09
vernier = 0.000410502
vernier = 0.000547336
vernier = 0.000410502
Gmin = 2.2992e-09
vernier = 0.000547336
vernier = 0.000410502
Gmin = 2.29731e-09
vernier = 0.000547336
vernier = 0.000410502
vernier = 0.000547336
vernier = 0.000410502
Gmin = 2.2959e-09
vernier = 0.000547336
vernier = 0.000410502
Gmin = 2.29402e-09
vernier = 0.000547336
vernier = 0.000410502
vernier = 0.000547335
vernier = 0.000410502
Gmin = 2.2926e-09
vernier = 0.000547335
vernier = 0.000410502
Gmin = 2.29072e-09
vernier = 0.000547335
vernier = 0.000410501
vernier = 0.000547335
Gmin = 2.28876e-09
vernier = 0.000410501
vernier = 0.000547335
vernier = 0.000410501
Gmin = 2.28743e-09
vernier = 0.000547335
vernier = 0.000410501
Gmin = 2.28556e-09
vernier = 0.000547335
vernier = 0.000410501
vernier = 0.000547335
vernier = 0.000410501
Gmin = 2.28415e-09
vernier = 0.000547334
vernier = 0.000410501
Gmin = 2.28228e-09
vernier = 0.000547334
vernier = 0.000410501
vernier = 0.000547334
vernier = 0.000410501
Gmin = 2.28087e-09
vernier = 0.000547334
vernier = 0.0004105
Gmin = 2.279e-09
vernier = 0.000547334
vernier = 0.0004105
vernier = 0.000547334
Gmin = 2.27705e-09
vernier = 0.0004105
vernier = 0.000547334
vernier = 0.0004105
Gmin = 2.27573e-09
vernier = 0.000547333
vernier = 0.0004105
Gmin = 2.27386e-09
vernier = 0.000547333
vernier = 0.0004105
vernier = 0.000547333
vernier = 0.0004105
Gmin = 2.27246e-09
vernier = 0.000547333
vernier = 0.0004105
Gmin = 2.27059e-09
vernier = 0.000547333
vernier = 0.0004105
vernier = 0.000547333
vernier = 0.0004105
Gmin = 2.2692e-09
vernier = 0.000547333
vernier = 0.000410499
Gmin = 2.26734e-09
vernier = 0.000547332
vernier = 0.000410499
vernier = 0.000547332
Gmin = 2.2654e-09
vernier = 0.000410499
vernier = 0.000547332
vernier = 0.000410499
Gmin = 2.26408e-09
vernier = 0.000547332
vernier = 0.000410499
Gmin = 2.26222e-09
vernier = 0.000547332
vernier = 0.000410499
vernier = 0.000547332
vernier = 0.000410499
Gmin = 2.26083e-09
vernier = 0.000547332
vernier = 0.000410499
Gmin = 2.25897e-09
vernier = 0.000547332
vernier = 0.000410499
vernier = 0.000547331
vernier = 0.000410499
Gmin = 2.25758e-09
vernier = 0.000547331
vernier = 0.000410498
Gmin = 2.25573e-09
vernier = 0.000547331
vernier = 0.000410498
vernier = 0.000547331
Gmin = 2.2538e-09
vernier = 0.000410498
vernier = 0.000547331
vernier = 0.000410498
Gmin = 2.25249e-09
vernier = 0.000547331
vernier = 0.000410498
Gmin = 2.25064e-09
vernier = 0.000547331
vernier = 0.000410498
vernier = 0.00054733
vernier = 0.000410498
Gmin = 2.24926e-09
vernier = 0.00054733
vernier = 0.000410498
Gmin = 2.24741e-09
vernier = 0.00054733
vernier = 0.000410498
vernier = 0.00054733
vernier = 0.000410498
Gmin = 2.24603e-09
vernier = 0.00054733
vernier = 0.000410497
Gmin = 2.24419e-09
vernier = 0.00054733
vernier = 0.000410497
vernier = 0.00054733
Gmin = 2.24227e-09
vernier = 0.000410497
vernier = 0.000547329
vernier = 0.000410497
Gmin = 2.24096e-09
vernier = 0.000547329
vernier = 0.000410497
Gmin = 2.23913e-09
vernier = 0.000547329
vernier = 0.000410497
vernier = 0.000547329
vernier = 0.000410497
Gmin = 2.23775e-09
vernier = 0.000547329
vernier = 0.000410497
Gmin = 2.23591e-09
vernier = 0.000547329
vernier = 0.000410497
vernier = 0.000547329
vernier = 0.000410496
Gmin = 2.23454e-09
vernier = 0.000547329
vernier = 0.000410496
Gmin = 2.2327e-09
vernier = 0.000547328
vernier = 0.000410496
vernier = 0.000547328
Gmin = 2.23079e-09
vernier = 0.000410496
vernier = 0.000547328
vernier = 0.000410496
Gmin = 2.2295e-09
vernier = 0.000547328
vernier = 0.000410496
Gmin = 2.22767e-09
vernier = 0.000547328
vernier = 0.000410496
vernier = 0.000547328
vernier = 0.000410496
Gmin = 2.2263e-09
vernier = 0.000547328
vernier = 0.000410496
Gmin = 2.22447e-09
vernier = 0.000547327
vernier = 0.000410496
vernier = 0.000547327
vernier = 0.000410495
Gmin = 2.2231e-09
vernier = 0.000547327
vernier = 0.000410495
Gmin = 2.22128e-09
vernier = 0.000547327
vernier = 0.000410495
vernier = 0.000547327
Gmin = 2.21938e-09
vernier = 0.000410495
vernier = 0.000547327
vernier = 0.000410495
Gmin = 2.21809e-09
vernier = 0.000547327
vernier = 0.000410495
Gmin = 2.21627e-09
vernier = 0.000547326
vernier = 0.000410495
vernier = 0.000547326
vernier = 0.000410495
Gmin = 2.2149e-09
vernier = 0.000547326
vernier = 0.000410495
Gmin = 2.21308e-09
vernier = 0.000547326
vernier = 0.000410495
vernier = 0.000547326
vernier = 0.000410494
Gmin = 2.21172e-09
vernier = 0.000547326
vernier = 0.000410494
Gmin = 2.20991e-09
vernier = 0.000547326
vernier = 0.000410494
vernier = 0.000547325
Gmin = 2.20802e-09
vernier = 0.000410494
vernier = 0.000547325
vernier = 0.000410494
Gmin = 2.20673e-09
vernier = 0.000547325
vernier = 0.000410494
Gmin = 2.20492e-09
vernier = 0.000547325
vernier = 0.000410494
vernier = 0.000547325
vernier = 0.000410494
Gmin = 2.20357e-09
vernier = 0.000547325
vernier = 0.000410494
Gmin = 2.20176e-09
vernier = 0.000547325
vernier = 0.000410494
vernier = 0.000547325
vernier = 0.000410493
Gmin = 2.2004e-09
vernier = 0.000547324
vernier = 0.000410493
Gmin = 2.1986e-09
vernier = 0.000547324
vernier = 0.000410493
vernier = 0.000547324
Gmin = 2.19672e-09
vernier = 0.000410493
vernier = 0.000547324
vernier = 0.000410493
Gmin = 2.19544e-09
vernier = 0.000547324
vernier = 0.000410493
Gmin = 2.19364e-09
vernier = 0.000547324
vernier = 0.000729765
vernier = 0.000547324
Gmin = 2.19124e-09
vernier = 0.000729765
vernier = 0.000547323
Gmin = 2.18884e-09
vernier = 0.000729764
vernier = 0.000547323
vernier = 0.000729764
vernier = 0.000547323
Gmin = 2.18705e-09
vernier = 0.000729764
vernier = 0.000547323
Gmin = 2.18465e-09
vernier = 0.000729764
vernier = 0.000547323
vernier = 0.000729764
vernier = 0.000547323
Gmin = 2.18286e-09
vernier = 0.000729763
vernier = 0.000547323
Gmin = 2.18047e-09
vernier = 0.000729763
vernier = 0.000547322
vernier = 0.000729763
Gmin = 2.17799e-09
vernier = 0.000547322
vernier = 0.000729763
vernier = 0.000547322
Gmin = 2.1763e-09
vernier = 0.000729763
vernier = 0.000547322
Gmin = 2.17392e-09
vernier = 0.000729763
vernier = 0.000547322
vernier = 0.000729762
vernier = 0.000547322
Gmin = 2.17214e-09
vernier = 0.000729762
Gmin = 2.16857e-09
vernier = 0.000973016
vernier = 0.00129735
Gmin = 2.1626e-09
vernier = 0.00172981
vernier = 0.00230641
Gmin = 2.15312e-09
vernier = 0.00307521
Gmin = 2.13828e-09
vernier = 0.00410028
vernier = 0.00546703
Gmin = 2.11359e-09
vernier = 0.00728938
vernier = 0.00971917
Gmin = 2.07483e-09
vernier = 0.0129589
Gmin = 2.0153e-09
vernier = 0.0172785
vernier = 0.023038
Gmin = 1.91925e-09
vernier = 0.0307173
vernier = 0.0409564
Gmin = 1.77566e-09
vernier = 0.0546086
Gmin = 1.57155e-09
vernier = 0.0728114
vernier = 0.0970819
Gmin = 1.28134e-09
vernier = 0.129442
vernier = 0.17259
Gmin = 9.27162e-10
vernier = 0.23012
Gmin = 5.59779e-10
vernier = 0.306826
vernier = 0.409102
Gmin = 2.43373e-10
vernier = 0.545469
vernier = 0.727291
Gmin = 6.66001e-11
vernier = 0.969722
Gmin = 9.28182e-12
vernier = 1
Gmin = 9.96628e-13
Gmin = 1.07012e-13
Gmin = 0
Gmin stepping succeeded in finding the operating point.


Date: Mon Mar  2 14:30:14 2020
Total elapsed time: 1.504 seconds.

tnom = 27
temp = 27
method = modified trap
totiter = 223416
traniter = 28055
tranpoints = 9449
accept = 7026
rejected = 2423
matrix size = 13
fillins = 11
solver = Normal
Matrix Compiler1: 1.01 KB object code size  0.2/0.1/[0.1]
Matrix Compiler2: off  [0.1]/0.2/0.1

