Circuit: * C:\users\marc-antoine\Bureau\bass-amplifier\simulation\Draft1.asc

WARNING: Less than two connections to node V+1.65.  This node is used by V5.
Direct Newton iteration failed to find .op point.  (Use ".option noopiter" to skip.)
Starting Gmin stepping
Gmin = 10
Gmin = 1.07374
vernier = 0.5
vernier = 0.25
vernier = 0.125
vernier = 0.0625
Gmin = 1.08884
vernier = 0.03125
vernier = 0.015625
Gmin = 1.03922
vernier = 0.0078125
vernier = 0.00390625
Gmin = 1.02313
vernier = 0.00520833
vernier = 0.00260417
Gmin = 1.01616
vernier = 0.00347222
vernier = 0.00173611
vernier = 0.00231481
Gmin = 1.01205
vernier = 0.00115741
vernier = 0.00154321
vernier = 0.000771604
Gmin = 1.0104
vernier = 0.00102881
Gmin = 1.00812
vernier = 0.000514403
vernier = 0.00068587
Gmin = 1.00704
vernier = 0.000514403
vernier = 0.00068587
vernier = 0.000514402
Gmin = 1.00622
Gmin = 0
Gmin stepping failed

Starting source stepping with srcstepmethod=0
Source Step = 3.0303%
Source Step = 33.3333%
Source Step = 63.6364%
Source Step = 93.9394%
Source stepping succeeded in finding the operating point.


Date: Sun Mar 22 12:30:18 2020
Total elapsed time: 0.143 seconds.

tnom = 27
temp = 27
method = modified trap
totiter = 8864
traniter = 2084
tranpoints = 1043
accept = 1043
rejected = 0
matrix size = 18
fillins = 6
solver = Normal
Matrix Compiler1: 1.00 KB object code size  0.2/0.1/[0.1]
Matrix Compiler2: 1.55 KB object code size  0.3/0.4/[0.2]

