Circuit: * C:\users\marc-antoine\Bureau\bass-amplifier\simulation\Draft2.asc

Direct Newton iteration for .op point succeeded.

Date: Mon Mar  2 16:26:11 2020
Total elapsed time: 0.035 seconds.

tnom = 27
temp = 27
method = trap
totiter = 4
traniter = 0
tranpoints = 0
accept = 0
rejected = 0
matrix size = 16
fillins = 7
solver = Normal
Matrix Compiler1:      64 opcodes
Matrix Compiler2: 1.69 KB object code size
